/*---------------------------------------------------------------------------*\
  =========                 |
  \\      /  F ield         | OpenFOAM: The Open Source CFD Toolbox
   \\    /   O peration     | Website:  https://openfoam.org
    \\  /    A nd           | Version:  dev
     \\/     M anipulation  |
\*---------------------------------------------------------------------------*/
Build  : dev-76425c1021d7
Exec   : buoyantHumidityPimpleFoam
Date   : Nov 03 2018
Time   : 20:03:28
Host   : "shorty"
PID    : 10830
I/O    : uncollated
Case   : /home/shorty/OpenFOAM/OpenFOAM-dev/src/thermophysicalModels/basic/humidityRhoThermo/tutorials/laminar/fixedHumidityBC
nProcs : 1
sigFpe : Enabling floating point exception trapping (FOAM_SIGFPE).
fileModificationChecking : Monitoring run-time modified files using timeStampMaster (fileModificationSkew 10)
allowSystemOperations : Allowing user-supplied system call operations

// * * * * * * * * * * * * * * * * * * * * * * * * * * * * * * * * * * * * * //
Create time

Create mesh for time = 0


PIMPLE: No convergence criteria found


PIMPLE: Operating solver in PISO mode

Reading thermophysical properties

Selecting thermodynamics package 
{
    type            heHumidityRhoThermo;
    mixture         pureMixture;
    transport       const;
    thermo          hConst;
    equationOfState perfectGas;
    specie          specie;
    energy          sensibleEnthalpy;
}

Saturation pressure calculation based on buck

Reading field U

Reading/calculating face flux field phi

Creating turbulence model

Selecting turbulence model type laminar
Selecting laminar stress model Stokes

Reading g

Reading hRef
Calculating field g.h

Reading field p_rgh

Creating field dpdt

Creating field kinetic energy K

No MRF models present

Radiation model not active: radiationProperties not found
Selecting radiationModel none
No finite volume options present
Courant Number mean: 9.91803e-09 max: 1e-05

Starting time loop

Courant Number mean: 9.91803e-09 max: 1e-05
deltaT = 1.19999e-05
Time = 1.19999e-05

diagonal:  Solving for rho, Initial residual = 0, Final residual = 0, No Iterations 0
DILUPBiCGStab:  Solving for Ux, Initial residual = 1, Final residual = 5.67243e-15, No Iterations 1
DILUPBiCGStab:  Solving for Uy, Initial residual = 1, Final residual = 3.48037e-15, No Iterations 1
DILUPBiCGStab:  Solving for h, Initial residual = 1, Final residual = 1.14278e-14, No Iterations 1
   Solve transport equation for specific humidity
DILUPBiCGStab:  Solving for thermo:specificHumidity, Initial residual = 1, Final residual = 5.56056e-15, No Iterations 1
   Calculate the saturation pressure of water
   Calculate the partial pressure of water
   Calculate the relative humidity
   Calculate the water content
   Accounting for density change based on humidity
DICPCG:  Solving for p_rgh, Initial residual = 0.000223941, Final residual = 4.83249e-09, No Iterations 1
diagonal:  Solving for rho, Initial residual = 0, Final residual = 0, No Iterations 0
time step continuity errors : sum local = 5.54238e-13, global = 5.03584e-13, cumulative = 5.03584e-13
DICPCG:  Solving for p_rgh, Initial residual = 9.86461e-09, Final residual = 9.86461e-09, No Iterations 0
diagonal:  Solving for rho, Initial residual = 0, Final residual = 0, No Iterations 0
time step continuity errors : sum local = 3.9947e-12, global = 3.64325e-12, cumulative = 4.14683e-12
ExecutionTime = 0.09 s  ClockTime = 0 s

Courant Number mean: 3.9697e-08 max: 1.21229e-05
deltaT = 1.43997e-05
Time = 2.63996e-05

diagonal:  Solving for rho, Initial residual = 0, Final residual = 0, No Iterations 0
DILUPBiCGStab:  Solving for Ux, Initial residual = 0.231574, Final residual = 4.1145e-15, No Iterations 1
DILUPBiCGStab:  Solving for Uy, Initial residual = 0.959194, Final residual = 3.32097e-15, No Iterations 1
DILUPBiCGStab:  Solving for h, Initial residual = 0.232937, Final residual = 6.66298e-15, No Iterations 1
   Solve transport equation for specific humidity
DILUPBiCGStab:  Solving for thermo:specificHumidity, Initial residual = 0.233437, Final residual = 3.96467e-15, No Iterations 1
   Calculate the saturation pressure of water
   Calculate the partial pressure of water
   Calculate the relative humidity
   Calculate the water content
   Accounting for density change based on humidity
DICPCG:  Solving for p_rgh, Initial residual = 0.000286728, Final residual = 1.30104e-08, No Iterations 1
diagonal:  Solving for rho, Initial residual = 0, Final residual = 0, No Iterations 0
time step continuity errors : sum local = 1.4851e-12, global = 1.23684e-12, cumulative = 5.38367e-12
DICPCG:  Solving for p_rgh, Initial residual = 1.98115e-08, Final residual = 1.15152e-12, No Iterations 1
diagonal:  Solving for rho, Initial residual = 0, Final residual = 0, No Iterations 0
time step continuity errors : sum local = 3.68989e-12, global = 2.85838e-12, cumulative = 8.24205e-12
ExecutionTime = 0.11 s  ClockTime = 0 s

Courant Number mean: 8.77436e-08 max: 1.4955e-05
deltaT = 1.72797e-05
Time = 4.36793e-05

diagonal:  Solving for rho, Initial residual = 0, Final residual = 0, No Iterations 0
DILUPBiCGStab:  Solving for Ux, Initial residual = 0.174414, Final residual = 1.37834e-14, No Iterations 1
DILUPBiCGStab:  Solving for Uy, Initial residual = 0.904631, Final residual = 6.88169e-15, No Iterations 1
DILUPBiCGStab:  Solving for h, Initial residual = 0.870512, Final residual = 6.2944e-14, No Iterations 1
   Solve transport equation for specific humidity
DILUPBiCGStab:  Solving for thermo:specificHumidity, Initial residual = 0.141475, Final residual = 8.51113e-15, No Iterations 1
bounding thermo:specificHumidity, min: -8.16458e-231 max: 0.0148021 average: 6.46722e-10
   Calculate the saturation pressure of water
   Calculate the partial pressure of water
   Calculate the relative humidity
   Calculate the water content
   Accounting for density change based on humidity
DICPCG:  Solving for p_rgh, Initial residual = 0.00046907, Final residual = 4.48816e-08, No Iterations 1
diagonal:  Solving for rho, Initial residual = 0, Final residual = 0, No Iterations 0
time step continuity errors : sum local = 6.3476e-12, global = 2.88031e-12, cumulative = 1.11224e-11
DICPCG:  Solving for p_rgh, Initial residual = 5.32801e-08, Final residual = 9.06911e-12, No Iterations 1
diagonal:  Solving for rho, Initial residual = 0, Final residual = 0, No Iterations 0
time step continuity errors : sum local = 6.0282e-12, global = 4.09274e-12, cumulative = 1.52151e-11
ExecutionTime = 0.13 s  ClockTime = 0 s

Courant Number mean: 1.63504e-07 max: 1.8948e-05
deltaT = 2.07352e-05
Time = 6.44145e-05

diagonal:  Solving for rho, Initial residual = 0, Final residual = 0, No Iterations 0
DILUPBiCGStab:  Solving for Ux, Initial residual = 0.151836, Final residual = 4.88732e-14, No Iterations 1
DILUPBiCGStab:  Solving for Uy, Initial residual = 0.852697, Final residual = 1.52231e-14, No Iterations 1
DILUPBiCGStab:  Solving for h, Initial residual = 0.299053, Final residual = 6.82136e-14, No Iterations 1
   Solve transport equation for specific humidity
DILUPBiCGStab:  Solving for thermo:specificHumidity, Initial residual = 0.106507, Final residual = 2.33843e-14, No Iterations 1
bounding thermo:specificHumidity, min: -3.99771e-225 max: 0.0148015 average: 9.54913e-10
   Calculate the saturation pressure of water
   Calculate the partial pressure of water
   Calculate the relative humidity
   Calculate the water content
   Accounting for density change based on humidity
DICPCG:  Solving for p_rgh, Initial residual = 0.000643088, Final residual = 1.31325e-07, No Iterations 1
diagonal:  Solving for rho, Initial residual = 0, Final residual = 0, No Iterations 0
time step continuity errors : sum local = 1.68965e-11, global = 8.3034e-12, cumulative = 2.35185e-11
DICPCG:  Solving for p_rgh, Initial residual = 1.40301e-07, Final residual = 4.94295e-11, No Iterations 1
diagonal:  Solving for rho, Initial residual = 0, Final residual = 0, No Iterations 0
time step continuity errors : sum local = 8.2541e-12, global = 4.67623e-12, cumulative = 2.81947e-11
ExecutionTime = 0.15 s  ClockTime = 0 s

Courant Number mean: 2.80736e-07 max: 2.4862e-05
deltaT = 2.48821e-05
Time = 8.92966e-05

diagonal:  Solving for rho, Initial residual = 0, Final residual = 0, No Iterations 0
DILUPBiCGStab:  Solving for Ux, Initial residual = 0.135568, Final residual = 1.56847e-13, No Iterations 1
DILUPBiCGStab:  Solving for Uy, Initial residual = 0.807435, Final residual = 1.95295e-14, No Iterations 1
DILUPBiCGStab:  Solving for h, Initial residual = 0.188187, Final residual = 1.34988e-13, No Iterations 1
   Solve transport equation for specific humidity
DILUPBiCGStab:  Solving for thermo:specificHumidity, Initial residual = 0.0883159, Final residual = 6.88891e-14, No Iterations 1
bounding thermo:specificHumidity, min: -5.07939e-219 max: 0.0148007 average: 1.32471e-09
   Calculate the saturation pressure of water
   Calculate the partial pressure of water
   Calculate the relative humidity
   Calculate the water content
   Accounting for density change based on humidity
DICPCG:  Solving for p_rgh, Initial residual = 0.000851982, Final residual = 3.74577e-07, No Iterations 1
diagonal:  Solving for rho, Initial residual = 0, Final residual = 0, No Iterations 0
time step continuity errors : sum local = 4.51326e-11, global = 2.05393e-11, cumulative = 4.87341e-11
DICPCG:  Solving for p_rgh, Initial residual = 3.75559e-07, Final residual = 2.60693e-10, No Iterations 1
diagonal:  Solving for rho, Initial residual = 0, Final residual = 0, No Iterations 0
time step continuity errors : sum local = 1.09326e-11, global = 4.87427e-12, cumulative = 5.36083e-11
ExecutionTime = 0.18 s  ClockTime = 0 s

Courant Number mean: 4.59578e-07 max: 3.3864e-05
deltaT = 2.98579e-05
Time = 0.000119154

diagonal:  Solving for rho, Initial residual = 0, Final residual = 0, No Iterations 0
DILUPBiCGStab:  Solving for Ux, Initial residual = 0.122827, Final residual = 4.77922e-13, No Iterations 1
DILUPBiCGStab:  Solving for Uy, Initial residual = 0.761908, Final residual = 4.64383e-14, No Iterations 1
DILUPBiCGStab:  Solving for h, Initial residual = 0.146009, Final residual = 3.29851e-13, No Iterations 1
   Solve transport equation for specific humidity
DILUPBiCGStab:  Solving for thermo:specificHumidity, Initial residual = 0.0773115, Final residual = 2.14242e-13, No Iterations 1
bounding thermo:specificHumidity, min: -1.75346e-213 max: 0.0148 average: 1.76843e-09
   Calculate the saturation pressure of water
   Calculate the partial pressure of water
   Calculate the relative humidity
   Calculate the water content
   Accounting for density change based on humidity
DICPCG:  Solving for p_rgh, Initial residual = 0.00112555, Final residual = 1.05097e-06, No Iterations 1
diagonal:  Solving for rho, Initial residual = 0, Final residual = 0, No Iterations 0
time step continuity errors : sum local = 1.22591e-10, global = 4.34707e-11, cumulative = 9.7079e-11
DICPCG:  Solving for p_rgh, Initial residual = 1.05425e-06, Final residual = 1.33658e-09, No Iterations 1
diagonal:  Solving for rho, Initial residual = 0, Final residual = 0, No Iterations 0
time step continuity errors : sum local = 1.45175e-11, global = 4.69011e-12, cumulative = 1.01769e-10
ExecutionTime = 0.2 s  ClockTime = 0 s

Courant Number mean: 7.29641e-07 max: 4.75688e-05
deltaT = 3.5829e-05
Time = 0.000154983

diagonal:  Solving for rho, Initial residual = 0, Final residual = 0, No Iterations 0
DILUPBiCGStab:  Solving for Ux, Initial residual = 0.112319, Final residual = 1.43132e-12, No Iterations 1
DILUPBiCGStab:  Solving for Uy, Initial residual = 0.715233, Final residual = 4.1123e-13, No Iterations 1
DILUPBiCGStab:  Solving for h, Initial residual = 0.126511, Final residual = 9.03757e-13, No Iterations 1
   Solve transport equation for specific humidity
DILUPBiCGStab:  Solving for thermo:specificHumidity, Initial residual = 0.0700405, Final residual = 7.02509e-13, No Iterations 1
bounding thermo:specificHumidity, min: -1.33858e-202 max: 0.0147993 average: 2.30086e-09
   Calculate the saturation pressure of water
   Calculate the partial pressure of water
   Calculate the relative humidity
   Calculate the water content
   Accounting for density change based on humidity
DICPCG:  Solving for p_rgh, Initial residual = 0.00149498, Final residual = 2.75938e-06, No Iterations 1
diagonal:  Solving for rho, Initial residual = 0, Final residual = 0, No Iterations 0
time step continuity errors : sum local = 3.17278e-10, global = 7.99815e-11, cumulative = 1.81751e-10
DICPCG:  Solving for p_rgh, Initial residual = 2.7737e-06, Final residual = 6.47283e-09, No Iterations 1
diagonal:  Solving for rho, Initial residual = 0, Final residual = 0, No Iterations 0
time step continuity errors : sum local = 1.95878e-11, global = 4.03645e-12, cumulative = 1.85787e-10
ExecutionTime = 0.22 s  ClockTime = 0 s

Courant Number mean: 1.13313e-06 max: 6.786e-05
deltaT = 4.29948e-05
Time = 0.000197978

diagonal:  Solving for rho, Initial residual = 0, Final residual = 0, No Iterations 0
DILUPBiCGStab:  Solving for Ux, Initial residual = 0.10317, Final residual = 3.95371e-12, No Iterations 1
DILUPBiCGStab:  Solving for Uy, Initial residual = 0.66592, Final residual = 2.94313e-12, No Iterations 1
DILUPBiCGStab:  Solving for h, Initial residual = 0.116837, Final residual = 2.94377e-12, No Iterations 1
   Solve transport equation for specific humidity
DILUPBiCGStab:  Solving for thermo:specificHumidity, Initial residual = 0.0649529, Final residual = 2.33256e-12, No Iterations 1
bounding thermo:specificHumidity, min: -8.29939e-197 max: 0.0147988 average: 2.93976e-09
   Calculate the saturation pressure of water
   Calculate the partial pressure of water
   Calculate the relative humidity
   Calculate the water content
   Accounting for density change based on humidity
DICPCG:  Solving for p_rgh, Initial residual = 0.00199889, Final residual = 6.79321e-06, No Iterations 1
diagonal:  Solving for rho, Initial residual = 0, Final residual = 0, No Iterations 0
time step continuity errors : sum local = 7.73077e-10, global = 1.87131e-10, cumulative = 3.72918e-10
DICPCG:  Solving for p_rgh, Initial residual = 6.7954e-06, Final residual = 9.01316e-11, No Iterations 2
diagonal:  Solving for rho, Initial residual = 0, Final residual = 0, No Iterations 0
time step continuity errors : sum local = 2.54413e-11, global = 1.95866e-12, cumulative = 3.74877e-10
ExecutionTime = 0.24 s  ClockTime = 0 s

Courant Number mean: 1.73024e-06 max: 9.63246e-05
deltaT = 5.1592e-05
Time = 0.00024957

diagonal:  Solving for rho, Initial residual = 0, Final residual = 0, No Iterations 0
DILUPBiCGStab:  Solving for Ux, Initial residual = 0.0946377, Final residual = 1.01329e-11, No Iterations 1
DILUPBiCGStab:  Solving for Uy, Initial residual = 0.614427, Final residual = 1.56674e-11, No Iterations 1
DILUPBiCGStab:  Solving for h, Initial residual = 0.112411, Final residual = 8.75604e-12, No Iterations 1
   Solve transport equation for specific humidity
DILUPBiCGStab:  Solving for thermo:specificHumidity, Initial residual = 0.0612467, Final residual = 7.32135e-12, No Iterations 1
bounding thermo:specificHumidity, min: -4.35835e-191 max: 0.0147986 average: 3.70645e-09
   Calculate the saturation pressure of water
   Calculate the partial pressure of water
   Calculate the relative humidity
   Calculate the water content
   Accounting for density change based on humidity
DICPCG:  Solving for p_rgh, Initial residual = 0.00277478, Final residual = 1.9481e-05, No Iterations 1
diagonal:  Solving for rho, Initial residual = 0, Final residual = 0, No Iterations 0
time step continuity errors : sum local = 2.21727e-09, global = 6.8664e-10, cumulative = 1.06152e-09
DICPCG:  Solving for p_rgh, Initial residual = 1.94641e-05, Final residual = 7.55769e-10, No Iterations 2
diagonal:  Solving for rho, Initial residual = 0, Final residual = 0, No Iterations 0
time step continuity errors : sum local = 3.45731e-11, global = -1.25038e-12, cumulative = 1.06027e-09
ExecutionTime = 0.26 s  ClockTime = 0 s

Courant Number mean: 2.60653e-06 max: 0.000133392
deltaT = 6.19079e-05
Time = 0.000311478

diagonal:  Solving for rho, Initial residual = 0, Final residual = 0, No Iterations 0
DILUPBiCGStab:  Solving for Ux, Initial residual = 0.0863033, Final residual = 2.24496e-11, No Iterations 1
DILUPBiCGStab:  Solving for Uy, Initial residual = 0.55096, Final residual = 5.85835e-11, No Iterations 1
DILUPBiCGStab:  Solving for h, Initial residual = 0.111892, Final residual = 1.93917e-11, No Iterations 1
   Solve transport equation for specific humidity
DILUPBiCGStab:  Solving for thermo:specificHumidity, Initial residual = 0.0584692, Final residual = 2.04057e-11, No Iterations 1
bounding thermo:specificHumidity, min: -1.75816e-180 max: 0.0147987 average: 4.62651e-09
   Calculate the saturation pressure of water
   Calculate the partial pressure of water
   Calculate the relative humidity
   Calculate the water content
   Accounting for density change based on humidity
DICPCG:  Solving for p_rgh, Initial residual = 0.00395326, Final residual = 5.52271e-07, No Iterations 2
diagonal:  Solving for rho, Initial residual = 0, Final residual = 0, No Iterations 0
time step continuity errors : sum local = 6.97251e-11, global = 1.42112e-11, cumulative = 1.07448e-09
DICPCG:  Solving for p_rgh, Initial residual = 6.26764e-07, Final residual = 7.3122e-09, No Iterations 1
diagonal:  Solving for rho, Initial residual = 0, Final residual = 0, No Iterations 0
time step continuity errors : sum local = 4.87232e-11, global = -6.24954e-12, cumulative = 1.06823e-09
ExecutionTime = 0.29 s  ClockTime = 0 s

Courant Number mean: 3.88063e-06 max: 0.000177921
deltaT = 7.42876e-05
Time = 0.000385766

diagonal:  Solving for rho, Initial residual = 0, Final residual = 0, No Iterations 0
DILUPBiCGStab:  Solving for Ux, Initial residual = 0.0782062, Final residual = 3.69719e-11, No Iterations 1
DILUPBiCGStab:  Solving for Uy, Initial residual = 0.486319, Final residual = 1.50447e-10, No Iterations 1
DILUPBiCGStab:  Solving for h, Initial residual = 0.11594, Final residual = 3.27716e-11, No Iterations 1
   Solve transport equation for specific humidity
DILUPBiCGStab:  Solving for thermo:specificHumidity, Initial residual = 0.0563429, Final residual = 4.86661e-11, No Iterations 1
bounding thermo:specificHumidity, min: -9.90013e-175 max: 0.014799 average: 5.73069e-09
   Calculate the saturation pressure of water
   Calculate the partial pressure of water
   Calculate the relative humidity
   Calculate the water content
   Accounting for density change based on humidity
DICPCG:  Solving for p_rgh, Initial residual = 0.00569368, Final residual = 2.18333e-06, No Iterations 2
diagonal:  Solving for rho, Initial residual = 0, Final residual = 0, No Iterations 0
time step continuity errors : sum local = 2.53901e-10, global = 6.05842e-11, cumulative = 1.12881e-09
DICPCG:  Solving for p_rgh, Initial residual = 2.19387e-06, Final residual = 9.88262e-10, No Iterations 2
diagonal:  Solving for rho, Initial residual = 0, Final residual = 0, No Iterations 0
time step continuity errors : sum local = 6.85684e-11, global = -1.49537e-11, cumulative = 1.11386e-09
ExecutionTime = 0.31 s  ClockTime = 0 s

Courant Number mean: 5.71947e-06 max: 0.000228345
deltaT = 8.91398e-05
Time = 0.000474906

diagonal:  Solving for rho, Initial residual = 0, Final residual = 0, No Iterations 0
DILUPBiCGStab:  Solving for Ux, Initial residual = 0.0708455, Final residual = 4.74149e-11, No Iterations 1
DILUPBiCGStab:  Solving for Uy, Initial residual = 0.431319, Final residual = 2.82287e-10, No Iterations 1
DILUPBiCGStab:  Solving for h, Initial residual = 0.122391, Final residual = 4.72346e-11, No Iterations 1
   Solve transport equation for specific humidity
DILUPBiCGStab:  Solving for thermo:specificHumidity, Initial residual = 0.0546838, Final residual = 9.87303e-11, No Iterations 1
bounding thermo:specificHumidity, min: -9.74746e-165 max: 0.0147994 average: 7.05575e-09
   Calculate the saturation pressure of water
   Calculate the partial pressure of water
   Calculate the relative humidity
   Calculate the water content
   Accounting for density change based on humidity
DICPCG:  Solving for p_rgh, Initial residual = 0.00774032, Final residual = 7.28739e-06, No Iterations 2
diagonal:  Solving for rho, Initial residual = 0, Final residual = 0, No Iterations 0
time step continuity errors : sum local = 8.28255e-10, global = 2.23627e-10, cumulative = 1.33749e-09
DICPCG:  Solving for p_rgh, Initial residual = 7.29807e-06, Final residual = 9.69686e-09, No Iterations 2
diagonal:  Solving for rho, Initial residual = 0, Final residual = 0, No Iterations 0
time step continuity errors : sum local = 9.42548e-11, global = -2.75528e-11, cumulative = 1.30993e-09
ExecutionTime = 0.34 s  ClockTime = 0 s

Courant Number mean: 8.35471e-06 max: 0.00028532
deltaT = 0.000106958
Time = 0.000581864

diagonal:  Solving for rho, Initial residual = 0, Final residual = 0, No Iterations 0
DILUPBiCGStab:  Solving for Ux, Initial residual = 0.0678883, Final residual = 7.98075e-11, No Iterations 1
DILUPBiCGStab:  Solving for Uy, Initial residual = 0.375671, Final residual = 4.2366e-10, No Iterations 1
DILUPBiCGStab:  Solving for h, Initial residual = 0.126295, Final residual = 5.69491e-11, No Iterations 1
   Solve transport equation for specific humidity
DILUPBiCGStab:  Solving for thermo:specificHumidity, Initial residual = 0.053371, Final residual = 1.7473e-10, No Iterations 1
bounding thermo:specificHumidity, min: -6.08947e-159 max: 0.0147996 average: 8.64575e-09
   Calculate the saturation pressure of water
   Calculate the partial pressure of water
   Calculate the relative humidity
   Calculate the water content
   Accounting for density change based on humidity
DICPCG:  Solving for p_rgh, Initial residual = 0.0110878, Final residual = 2.6522e-05, No Iterations 2
diagonal:  Solving for rho, Initial residual = 0, Final residual = 0, No Iterations 0
time step continuity errors : sum local = 2.95598e-09, global = 8.53693e-10, cumulative = 2.16363e-09
DICPCG:  Solving for p_rgh, Initial residual = 2.65605e-05, Final residual = 2.60426e-09, No Iterations 3
diagonal:  Solving for rho, Initial residual = 0, Final residual = 0, No Iterations 0
time step continuity errors : sum local = 1.30649e-10, global = -4.70464e-11, cumulative = 2.11658e-09
ExecutionTime = 0.36 s  ClockTime = 0 s

Courant Number mean: 1.21014e-05 max: 0.000353228
deltaT = 0.000128344
Time = 0.000710208

diagonal:  Solving for rho, Initial residual = 0, Final residual = 0, No Iterations 0
DILUPBiCGStab:  Solving for Ux, Initial residual = 0.0665488, Final residual = 1.2733e-10, No Iterations 1
DILUPBiCGStab:  Solving for Uy, Initial residual = 0.328368, Final residual = 5.50749e-10, No Iterations 1
DILUPBiCGStab:  Solving for h, Initial residual = 0.133729, Final residual = 8.58371e-11, No Iterations 1
   Solve transport equation for specific humidity
DILUPBiCGStab:  Solving for thermo:specificHumidity, Initial residual = 0.0523258, Final residual = 2.82939e-10, No Iterations 1
bounding thermo:specificHumidity, min: -1.1201e-148 max: 0.0147996 average: 1.05537e-08
   Calculate the saturation pressure of water
   Calculate the partial pressure of water
   Calculate the relative humidity
   Calculate the water content
   Accounting for density change based on humidity
DICPCG:  Solving for p_rgh, Initial residual = 0.0154205, Final residual = 9.01501e-05, No Iterations 2
diagonal:  Solving for rho, Initial residual = 0, Final residual = 0, No Iterations 0
time step continuity errors : sum local = 9.92069e-09, global = 2.74748e-09, cumulative = 4.86406e-09
DICPCG:  Solving for p_rgh, Initial residual = 9.08436e-05, Final residual = 2.38013e-09, No Iterations 4
diagonal:  Solving for rho, Initial residual = 0, Final residual = 0, No Iterations 0
time step continuity errors : sum local = 1.8011e-10, global = -7.5021e-11, cumulative = 4.78904e-09
ExecutionTime = 0.38 s  ClockTime = 0 s

Courant Number mean: 1.73825e-05 max: 0.000437352
deltaT = 0.000153998
Time = 0.000864206

diagonal:  Solving for rho, Initial residual = 0, Final residual = 0, No Iterations 0
DILUPBiCGStab:  Solving for Ux, Initial residual = 0.0669108, Final residual = 1.9468e-10, No Iterations 1
DILUPBiCGStab:  Solving for Uy, Initial residual = 0.283533, Final residual = 5.91955e-10, No Iterations 1
DILUPBiCGStab:  Solving for h, Initial residual = 0.140269, Final residual = 1.29856e-10, No Iterations 1
   Solve transport equation for specific humidity
DILUPBiCGStab:  Solving for thermo:specificHumidity, Initial residual = 0.051484, Final residual = 4.37208e-10, No Iterations 1
bounding thermo:specificHumidity, min: -8.63831e-140 max: 0.0147997 average: 1.2843e-08
   Calculate the saturation pressure of water
   Calculate the partial pressure of water
   Calculate the relative humidity
   Calculate the water content
   Accounting for density change based on humidity
DICPCG:  Solving for p_rgh, Initial residual = 0.0221213, Final residual = 2.69798e-05, No Iterations 3
diagonal:  Solving for rho, Initial residual = 0, Final residual = 0, No Iterations 0
time step continuity errors : sum local = 2.90573e-09, global = 6.33502e-10, cumulative = 5.42254e-09
DICPCG:  Solving for p_rgh, Initial residual = 2.72614e-05, Final residual = 2.93607e-09, No Iterations 4
diagonal:  Solving for rho, Initial residual = 0, Final residual = 0, No Iterations 0
time step continuity errors : sum local = 2.52924e-10, global = -1.1546e-10, cumulative = 5.30708e-09
ExecutionTime = 0.4 s  ClockTime = 0 s

Courant Number mean: 2.47326e-05 max: 0.000538399
deltaT = 0.000184786
Time = 0.00104899

diagonal:  Solving for rho, Initial residual = 0, Final residual = 0, No Iterations 0
DILUPBiCGStab:  Solving for Ux, Initial residual = 0.0677705, Final residual = 2.76952e-10, No Iterations 1
DILUPBiCGStab:  Solving for Uy, Initial residual = 0.245003, Final residual = 5.30449e-10, No Iterations 1
DILUPBiCGStab:  Solving for h, Initial residual = 0.148398, Final residual = 1.6558e-10, No Iterations 1
   Solve transport equation for specific humidity
DILUPBiCGStab:  Solving for thermo:specificHumidity, Initial residual = 0.0508074, Final residual = 6.46464e-10, No Iterations 1
bounding thermo:specificHumidity, min: -7.65409e-138 max: 0.0147999 average: 1.55902e-08
   Calculate the saturation pressure of water
   Calculate the partial pressure of water
   Calculate the relative humidity
   Calculate the water content
   Accounting for density change based on humidity
DICPCG:  Solving for p_rgh, Initial residual = 0.03183, Final residual = 0.000103347, No Iterations 3
diagonal:  Solving for rho, Initial residual = 0, Final residual = 0, No Iterations 0
time step continuity errors : sum local = 1.07643e-08, global = 2.31011e-09, cumulative = 7.61719e-09
DICPCG:  Solving for p_rgh, Initial residual = 0.000105353, Final residual = 5.4547e-09, No Iterations 5
diagonal:  Solving for rho, Initial residual = 0, Final residual = 0, No Iterations 0
time step continuity errors : sum local = 3.53118e-10, global = -1.71785e-10, cumulative = 7.4454e-09
ExecutionTime = 0.43 s  ClockTime = 0 s

Courant Number mean: 3.48131e-05 max: 0.000651257
deltaT = 0.000221743
Time = 0.00127073

diagonal:  Solving for rho, Initial residual = 0, Final residual = 0, No Iterations 0
DILUPBiCGStab:  Solving for Ux, Initial residual = 0.0693878, Final residual = 3.78193e-10, No Iterations 1
DILUPBiCGStab:  Solving for Uy, Initial residual = 0.210501, Final residual = 4.62822e-10, No Iterations 1
DILUPBiCGStab:  Solving for h, Initial residual = 0.156232, Final residual = 2.09092e-10, No Iterations 1
   Solve transport equation for specific humidity
DILUPBiCGStab:  Solving for thermo:specificHumidity, Initial residual = 0.0502607, Final residual = 8.98739e-10, No Iterations 1
bounding thermo:specificHumidity, min: -8.41868e-125 max: 0.0148008 average: 1.8887e-08
   Calculate the saturation pressure of water
   Calculate the partial pressure of water
   Calculate the relative humidity
   Calculate the water content
   Accounting for density change based on humidity
DICPCG:  Solving for p_rgh, Initial residual = 0.0466446, Final residual = 0.000348436, No Iterations 3
diagonal:  Solving for rho, Initial residual = 0, Final residual = 0, No Iterations 0
time step continuity errors : sum local = 3.45773e-08, global = 6.3926e-09, cumulative = 1.3838e-08
DICPCG:  Solving for p_rgh, Initial residual = 0.000359975, Final residual = 2.37813e-09, No Iterations 7
diagonal:  Solving for rho, Initial residual = 0, Final residual = 0, No Iterations 0
time step continuity errors : sum local = 4.9219e-10, global = -2.48827e-10, cumulative = 1.35892e-08
ExecutionTime = 0.45 s  ClockTime = 0 s

Courant Number mean: 4.83934e-05 max: 0.000771097
deltaT = 0.000266044
Time = 0.00153678

diagonal:  Solving for rho, Initial residual = 0, Final residual = 0, No Iterations 0
DILUPBiCGStab:  Solving for Ux, Initial residual = 0.0717968, Final residual = 5.04518e-10, No Iterations 1
DILUPBiCGStab:  Solving for Uy, Initial residual = 0.179924, Final residual = 4.76574e-10, No Iterations 1
DILUPBiCGStab:  Solving for h, Initial residual = 0.163666, Final residual = 3.261e-10, No Iterations 1
   Solve transport equation for specific humidity
DILUPBiCGStab:  Solving for thermo:specificHumidity, Initial residual = 0.0498037, Final residual = 1.19197e-09, No Iterations 1
bounding thermo:specificHumidity, min: -3.55305e-116 max: 0.0148015 average: 2.28426e-08
   Calculate the saturation pressure of water
   Calculate the partial pressure of water
   Calculate the relative humidity
   Calculate the water content
   Accounting for density change based on humidity
DICPCG:  Solving for p_rgh, Initial residual = 0.0703227, Final residual = 0.000249518, No Iterations 4
diagonal:  Solving for rho, Initial residual = 0, Final residual = 0, No Iterations 0
time step continuity errors : sum local = 2.29484e-08, global = 3.61641e-09, cumulative = 1.72056e-08
DICPCG:  Solving for p_rgh, Initial residual = 0.000263334, Final residual = 3.0697e-09, No Iterations 8
diagonal:  Solving for rho, Initial residual = 0, Final residual = 0, No Iterations 0
time step continuity errors : sum local = 6.86795e-10, global = -3.52177e-10, cumulative = 1.68534e-08
ExecutionTime = 0.48 s  ClockTime = 1 s

Courant Number mean: 6.62549e-05 max: 0.000902035
deltaT = 0.000319202
Time = 0.00185598

diagonal:  Solving for rho, Initial residual = 0, Final residual = 0, No Iterations 0
DILUPBiCGStab:  Solving for Ux, Initial residual = 0.0750081, Final residual = 6.54047e-10, No Iterations 1
DILUPBiCGStab:  Solving for Uy, Initial residual = 0.15152, Final residual = 5.40796e-10, No Iterations 1
DILUPBiCGStab:  Solving for h, Initial residual = 0.170339, Final residual = 4.70001e-10, No Iterations 1
   Solve transport equation for specific humidity
DILUPBiCGStab:  Solving for thermo:specificHumidity, Initial residual = 0.0494288, Final residual = 1.57693e-09, No Iterations 1
bounding thermo:specificHumidity, min: -4.22033e-103 max: 0.0148021 average: 2.75886e-08
   Calculate the saturation pressure of water
   Calculate the partial pressure of water
   Calculate the relative humidity
   Calculate the water content
   Accounting for density change based on humidity
DICPCG:  Solving for p_rgh, Initial residual = 0.110626, Final residual = 0.000822145, No Iterations 4
diagonal:  Solving for rho, Initial residual = 0, Final residual = 0, No Iterations 0
time step continuity errors : sum local = 6.6706e-08, global = 1.03844e-08, cumulative = 2.72378e-08
DICPCG:  Solving for p_rgh, Initial residual = 0.000898861, Final residual = 5.12821e-09, No Iterations 10
diagonal:  Solving for rho, Initial residual = 0, Final residual = 0, No Iterations 0
time step continuity errors : sum local = 9.50799e-10, global = -4.8395e-10, cumulative = 2.67538e-08
ExecutionTime = 0.5 s  ClockTime = 1 s

Courant Number mean: 8.90022e-05 max: 0.00105841
deltaT = 0.000383018
Time = 0.002239

diagonal:  Solving for rho, Initial residual = 0, Final residual = 0, No Iterations 0
DILUPBiCGStab:  Solving for Ux, Initial residual = 0.0788168, Final residual = 8.21763e-10, No Iterations 1
DILUPBiCGStab:  Solving for Uy, Initial residual = 0.123566, Final residual = 6.29922e-10, No Iterations 1
DILUPBiCGStab:  Solving for h, Initial residual = 0.175216, Final residual = 6.0683e-10, No Iterations 1
   Solve transport equation for specific humidity
DILUPBiCGStab:  Solving for thermo:specificHumidity, Initial residual = 0.0491238, Final residual = 2.14351e-09, No Iterations 1
bounding thermo:specificHumidity, min: -5.30262e-95 max: 0.0148025 average: 3.32833e-08
   Calculate the saturation pressure of water
   Calculate the partial pressure of water
   Calculate the relative humidity
   Calculate the water content
   Accounting for density change based on humidity
DICPCG:  Solving for p_rgh, Initial residual = 0.186774, Final residual = 0.000928508, No Iterations 5
diagonal:  Solving for rho, Initial residual = 0, Final residual = 0, No Iterations 0
time step continuity errors : sum local = 6.12416e-08, global = 1.06628e-08, cumulative = 3.74167e-08
DICPCG:  Solving for p_rgh, Initial residual = 0.00108599, Final residual = 6.50788e-09, No Iterations 12
diagonal:  Solving for rho, Initial residual = 0, Final residual = 0, No Iterations 0
time step continuity errors : sum local = 1.29281e-09, global = -6.43209e-10, cumulative = 3.67734e-08
ExecutionTime = 0.53 s  ClockTime = 1 s

Courant Number mean: 0.000116559 max: 0.00125425
deltaT = 0.000459586
Time = 0.00269858

diagonal:  Solving for rho, Initial residual = 0, Final residual = 0, No Iterations 0
DILUPBiCGStab:  Solving for Ux, Initial residual = 0.0829689, Final residual = 1.02673e-09, No Iterations 1
DILUPBiCGStab:  Solving for Uy, Initial residual = 0.0923662, Final residual = 7.74875e-10, No Iterations 1
DILUPBiCGStab:  Solving for h, Initial residual = 0.175533, Final residual = 7.06945e-10, No Iterations 1
   Solve transport equation for specific humidity
DILUPBiCGStab:  Solving for thermo:specificHumidity, Initial residual = 0.0488718, Final residual = 2.98942e-09, No Iterations 1
bounding thermo:specificHumidity, min: -6.65938e-88 max: 0.014803 average: 4.01165e-08
   Calculate the saturation pressure of water
   Calculate the partial pressure of water
   Calculate the relative humidity
   Calculate the water content
   Accounting for density change based on humidity
DICPCG:  Solving for p_rgh, Initial residual = 0.35733, Final residual = 0.00344777, No Iterations 5
diagonal:  Solving for rho, Initial residual = 0, Final residual = 0, No Iterations 0
time step continuity errors : sum local = 1.57168e-07, global = 2.78416e-08, cumulative = 6.4615e-08
DICPCG:  Solving for p_rgh, Initial residual = 0.00473352, Final residual = 7.42091e-09, No Iterations 16
diagonal:  Solving for rho, Initial residual = 0, Final residual = 0, No Iterations 0
time step continuity errors : sum local = 1.66687e-09, global = -8.16912e-10, cumulative = 6.37981e-08
ExecutionTime = 0.55 s  ClockTime = 1 s

Courant Number mean: 0.000147165 max: 0.00149557
deltaT = 0.0005513
Time = 0.00324988

diagonal:  Solving for rho, Initial residual = 0, Final residual = 0, No Iterations 0
DILUPBiCGStab:  Solving for Ux, Initial residual = 0.0873492, Final residual = 1.36943e-09, No Iterations 1
DILUPBiCGStab:  Solving for Uy, Initial residual = 0.05326, Final residual = 9.97006e-10, No Iterations 1
DILUPBiCGStab:  Solving for h, Initial residual = 0.16652, Final residual = 8.26303e-10, No Iterations 1
   Solve transport equation for specific humidity
DILUPBiCGStab:  Solving for thermo:specificHumidity, Initial residual = 0.0486504, Final residual = 4.21646e-09, No Iterations 1
bounding thermo:specificHumidity, min: -4.00952e-88 max: 0.0148035 average: 4.83135e-08
   Calculate the saturation pressure of water
   Calculate the partial pressure of water
   Calculate the relative humidity
   Calculate the water content
   Accounting for density change based on humidity
DICPCG:  Solving for p_rgh, Initial residual = 0.53802, Final residual = 0.0029098, No Iterations 7
diagonal:  Solving for rho, Initial residual = 0, Final residual = 0, No Iterations 0
time step continuity errors : sum local = 1.05709e-07, global = 1.88478e-08, cumulative = 8.26459e-08
DICPCG:  Solving for p_rgh, Initial residual = 0.00274463, Final residual = 6.20022e-09, No Iterations 18
diagonal:  Solving for rho, Initial residual = 0, Final residual = 0, No Iterations 0
time step continuity errors : sum local = 1.94079e-09, global = -9.67952e-10, cumulative = 8.16779e-08
ExecutionTime = 0.58 s  ClockTime = 1 s

Courant Number mean: 0.000175978 max: 0.00178184
deltaT = 0.000661413
Time = 0.0039113

diagonal:  Solving for rho, Initial residual = 0, Final residual = 0, No Iterations 0
DILUPBiCGStab:  Solving for Ux, Initial residual = 0.0908625, Final residual = 2.22725e-09, No Iterations 1
DILUPBiCGStab:  Solving for Uy, Initial residual = 0.0718974, Final residual = 2.50353e-09, No Iterations 1
DILUPBiCGStab:  Solving for h, Initial residual = 0.145241, Final residual = 9.74546e-10, No Iterations 1
   Solve transport equation for specific humidity
DILUPBiCGStab:  Solving for thermo:specificHumidity, Initial residual = 0.048474, Final residual = 5.94605e-09, No Iterations 1
bounding thermo:specificHumidity, min: -3.33327e-89 max: 0.0148039 average: 5.81478e-08
   Calculate the saturation pressure of water
   Calculate the partial pressure of water
   Calculate the relative humidity
   Calculate the water content
   Accounting for density change based on humidity
DICPCG:  Solving for p_rgh, Initial residual = 0.354283, Final residual = 0.00249794, No Iterations 8
diagonal:  Solving for rho, Initial residual = 0, Final residual = 0, No Iterations 0
time step continuity errors : sum local = 1.39963e-07, global = 2.87532e-08, cumulative = 1.10431e-07
DICPCG:  Solving for p_rgh, Initial residual = 0.00194225, Final residual = 6.92362e-09, No Iterations 21
diagonal:  Solving for rho, Initial residual = 0, Final residual = 0, No Iterations 0
time step continuity errors : sum local = 1.94172e-09, global = -1.02035e-09, cumulative = 1.09411e-07
ExecutionTime = 0.61 s  ClockTime = 1 s

Courant Number mean: 0.000194245 max: 0.00236021
deltaT = 0.000793696
Time = 0.00470499

diagonal:  Solving for rho, Initial residual = 0, Final residual = 0, No Iterations 0
DILUPBiCGStab:  Solving for Ux, Initial residual = 0.091815, Final residual = 4.70654e-09, No Iterations 1
DILUPBiCGStab:  Solving for Uy, Initial residual = 0.272345, Final residual = 9.49521e-09, No Iterations 1
DILUPBiCGStab:  Solving for h, Initial residual = 0.114315, Final residual = 9.16519e-10, No Iterations 1
   Solve transport equation for specific humidity
DILUPBiCGStab:  Solving for thermo:specificHumidity, Initial residual = 0.0483366, Final residual = 8.27595e-09, No Iterations 1
bounding thermo:specificHumidity, min: -1.31809e-90 max: 0.0148043 average: 6.99487e-08
   Calculate the saturation pressure of water
   Calculate the partial pressure of water
   Calculate the relative humidity
   Calculate the water content
   Accounting for density change based on humidity
DICPCG:  Solving for p_rgh, Initial residual = 0.18392, Final residual = 0.00154639, No Iterations 10
diagonal:  Solving for rho, Initial residual = 0, Final residual = 0, No Iterations 0
time step continuity errors : sum local = 1.38878e-07, global = 2.15242e-08, cumulative = 1.30935e-07
DICPCG:  Solving for p_rgh, Initial residual = 0.00134284, Final residual = 7.89802e-09, No Iterations 24
diagonal:  Solving for rho, Initial residual = 0, Final residual = 0, No Iterations 0
time step continuity errors : sum local = 1.57028e-09, global = -8.44525e-10, cumulative = 1.3009e-07
ExecutionTime = 0.64 s  ClockTime = 1 s

Courant Number mean: 0.000188541 max: 0.00365723
deltaT = 0.000952435
Time = 0.00565743

diagonal:  Solving for rho, Initial residual = 0, Final residual = 0, No Iterations 0
DILUPBiCGStab:  Solving for Ux, Initial residual = 0.0953578, Final residual = 1.34383e-08, No Iterations 1
DILUPBiCGStab:  Solving for Uy, Initial residual = 0.493162, Final residual = 1.71712e-08, No Iterations 1
DILUPBiCGStab:  Solving for h, Initial residual = 0.0787218, Final residual = 6.21421e-10, No Iterations 1
   Solve transport equation for specific humidity
DILUPBiCGStab:  Solving for thermo:specificHumidity, Initial residual = 0.0482204, Final residual = 1.12957e-08, No Iterations 1
bounding thermo:specificHumidity, min: -9.98772e-91 max: 0.0148045 average: 8.41086e-08
   Calculate the saturation pressure of water
   Calculate the partial pressure of water
   Calculate the relative humidity
   Calculate the water content
   Accounting for density change based on humidity
DICPCG:  Solving for p_rgh, Initial residual = 0.0993058, Final residual = 0.000868618, No Iterations 13
diagonal:  Solving for rho, Initial residual = 0, Final residual = 0, No Iterations 0
time step continuity errors : sum local = 1.01017e-07, global = 9.19014e-09, cumulative = 1.39281e-07
DICPCG:  Solving for p_rgh, Initial residual = 0.000829564, Final residual = 9.17293e-09, No Iterations 27
diagonal:  Solving for rho, Initial residual = 0, Final residual = 0, No Iterations 0
time step continuity errors : sum local = 9.09463e-10, global = -3.13318e-10, cumulative = 1.38967e-07
ExecutionTime = 0.68 s  ClockTime = 1 s

Courant Number mean: 0.00015082 max: 0.00544413
deltaT = 0.00114292
Time = 0.00680035

diagonal:  Solving for rho, Initial residual = 0, Final residual = 0, No Iterations 0
DILUPBiCGStab:  Solving for Ux, Initial residual = 0.106701, Final residual = 3.21628e-08, No Iterations 1
DILUPBiCGStab:  Solving for Uy, Initial residual = 0.611046, Final residual = 1.91467e-08, No Iterations 1
DILUPBiCGStab:  Solving for h, Initial residual = 0.0432827, Final residual = 7.09136e-10, No Iterations 1
   Solve transport equation for specific humidity
DILUPBiCGStab:  Solving for thermo:specificHumidity, Initial residual = 0.0481226, Final residual = 1.54197e-08, No Iterations 1
bounding thermo:specificHumidity, min: -5.02395e-91 max: 0.0148044 average: 1.01098e-07
   Calculate the saturation pressure of water
   Calculate the partial pressure of water
   Calculate the relative humidity
   Calculate the water content
   Accounting for density change based on humidity
DICPCG:  Solving for p_rgh, Initial residual = 0.113699, Final residual = 0.0011173, No Iterations 15
diagonal:  Solving for rho, Initial residual = 0, Final residual = 0, No Iterations 0
time step continuity errors : sum local = 1.40831e-07, global = 3.87385e-09, cumulative = 1.42841e-07
DICPCG:  Solving for p_rgh, Initial residual = 0.00117805, Final residual = 9.93424e-09, No Iterations 33
diagonal:  Solving for rho, Initial residual = 0, Final residual = 0, No Iterations 0
time step continuity errors : sum local = 1.2325e-09, global = 5.54639e-10, cumulative = 1.43396e-07
ExecutionTime = 0.71 s  ClockTime = 1 s

Courant Number mean: 0.000289108 max: 0.00763502
deltaT = 0.00136993
Time = 0.00817028

diagonal:  Solving for rho, Initial residual = 0, Final residual = 0, No Iterations 0
DILUPBiCGStab:  Solving for Ux, Initial residual = 0.123627, Final residual = 5.30927e-08, No Iterations 1
DILUPBiCGStab:  Solving for Uy, Initial residual = 0.488871, Final residual = 2.19561e-08, No Iterations 1
DILUPBiCGStab:  Solving for h, Initial residual = 0.0540213, Final residual = 2.30496e-09, No Iterations 1
   Solve transport equation for specific humidity
DILUPBiCGStab:  Solving for thermo:specificHumidity, Initial residual = 0.0479905, Final residual = 2.16058e-08, No Iterations 1
bounding thermo:specificHumidity, min: -1.46503e-91 max: 0.014804 average: 1.21461e-07
   Calculate the saturation pressure of water
   Calculate the partial pressure of water
   Calculate the relative humidity
   Calculate the water content
   Accounting for density change based on humidity
DICPCG:  Solving for p_rgh, Initial residual = 0.244507, Final residual = 0.00201471, No Iterations 17
diagonal:  Solving for rho, Initial residual = 0, Final residual = 0, No Iterations 0
time step continuity errors : sum local = 2.38478e-07, global = 2.9901e-09, cumulative = 1.46386e-07
DICPCG:  Solving for p_rgh, Initial residual = 0.00227925, Final residual = 9.24945e-09, No Iterations 41
diagonal:  Solving for rho, Initial residual = 0, Final residual = 0, No Iterations 0
time step continuity errors : sum local = 2.37725e-09, global = 1.4054e-09, cumulative = 1.47791e-07
ExecutionTime = 0.74 s  ClockTime = 1 s

Courant Number mean: 0.000474547 max: 0.00999756
deltaT = 0.0016421
Time = 0.00981238

diagonal:  Solving for rho, Initial residual = 0, Final residual = 0, No Iterations 0
DILUPBiCGStab:  Solving for Ux, Initial residual = 0.143528, Final residual = 4.91017e-08, No Iterations 1
DILUPBiCGStab:  Solving for Uy, Initial residual = 0.248813, Final residual = 2.92491e-08, No Iterations 1
DILUPBiCGStab:  Solving for h, Initial residual = 0.119078, Final residual = 6.17841e-09, No Iterations 1
   Solve transport equation for specific humidity
DILUPBiCGStab:  Solving for thermo:specificHumidity, Initial residual = 0.0478849, Final residual = 3.1073e-08, No Iterations 1
bounding thermo:specificHumidity, min: -1.98005e-85 max: 0.0148036 average: 1.45868e-07
   Calculate the saturation pressure of water
   Calculate the partial pressure of water
   Calculate the relative humidity
   Calculate the water content
   Accounting for density change based on humidity
DICPCG:  Solving for p_rgh, Initial residual = 0.320144, Final residual = 0.00250548, No Iterations 19
diagonal:  Solving for rho, Initial residual = 0, Final residual = 0, No Iterations 0
time step continuity errors : sum local = 2.90769e-07, global = 4.29119e-09, cumulative = 1.52082e-07
DICPCG:  Solving for p_rgh, Initial residual = 0.00250626, Final residual = 8.23879e-09, No Iterations 52
diagonal:  Solving for rho, Initial residual = 0, Final residual = 0, No Iterations 0
time step continuity errors : sum local = 2.70145e-09, global = 1.60106e-09, cumulative = 1.53683e-07
ExecutionTime = 0.78 s  ClockTime = 1 s

Courant Number mean: 0.00060625 max: 0.0123819
deltaT = 0.00196856
Time = 0.0117809

diagonal:  Solving for rho, Initial residual = 0, Final residual = 0, No Iterations 0
DILUPBiCGStab:  Solving for Ux, Initial residual = 0.179218, Final residual = 2.10605e-08, No Iterations 1
DILUPBiCGStab:  Solving for Uy, Initial residual = 0.217188, Final residual = 4.72667e-08, No Iterations 1
DILUPBiCGStab:  Solving for h, Initial residual = 0.166798, Final residual = 1.18302e-08, No Iterations 1
   Solve transport equation for specific humidity
DILUPBiCGStab:  Solving for thermo:specificHumidity, Initial residual = 0.0478035, Final residual = 4.50982e-08, No Iterations 1
bounding thermo:specificHumidity, min: -1.29273e-78 max: 0.0148031 average: 1.75127e-07
   Calculate the saturation pressure of water
   Calculate the partial pressure of water
   Calculate the relative humidity
   Calculate the water content
   Accounting for density change based on humidity
DICPCG:  Solving for p_rgh, Initial residual = 0.163611, Final residual = 0.00150127, No Iterations 25
diagonal:  Solving for rho, Initial residual = 0, Final residual = 0, No Iterations 0
time step continuity errors : sum local = 2.15466e-07, global = 3.94577e-09, cumulative = 1.57629e-07
DICPCG:  Solving for p_rgh, Initial residual = 0.00135931, Final residual = 9.5414e-09, No Iterations 58
diagonal:  Solving for rho, Initial residual = 0, Final residual = 0, No Iterations 0
time step continuity errors : sum local = 1.67258e-09, global = 7.4497e-10, cumulative = 1.58374e-07
ExecutionTime = 0.82 s  ClockTime = 1 s

Courant Number mean: 0.00069956 max: 0.0150452
deltaT = 0.00235852
Time = 0.0141395

diagonal:  Solving for rho, Initial residual = 0, Final residual = 0, No Iterations 0
DILUPBiCGStab:  Solving for Ux, Initial residual = 0.255876, Final residual = 1.35384e-08, No Iterations 1
DILUPBiCGStab:  Solving for Uy, Initial residual = 0.581806, Final residual = 7.01978e-08, No Iterations 1
DILUPBiCGStab:  Solving for h, Initial residual = 0.116617, Final residual = 9.58637e-09, No Iterations 1
   Solve transport equation for specific humidity
DILUPBiCGStab:  Solving for thermo:specificHumidity, Initial residual = 0.0477122, Final residual = 6.60296e-08, No Iterations 1
bounding thermo:specificHumidity, min: -2.04482e-74 max: 0.0148029 average: 2.10184e-07
   Calculate the saturation pressure of water
   Calculate the partial pressure of water
   Calculate the relative humidity
   Calculate the water content
   Accounting for density change based on humidity
DICPCG:  Solving for p_rgh, Initial residual = 0.103528, Final residual = 0.000901753, No Iterations 30
diagonal:  Solving for rho, Initial residual = 0, Final residual = 0, No Iterations 0
time step continuity errors : sum local = 1.6418e-07, global = 3.78815e-09, cumulative = 1.62162e-07
DICPCG:  Solving for p_rgh, Initial residual = 0.000910101, Final residual = 7.94048e-09, No Iterations 70
diagonal:  Solving for rho, Initial residual = 0, Final residual = 0, No Iterations 0
time step continuity errors : sum local = 1.31599e-09, global = -5.83778e-10, cumulative = 1.61579e-07
ExecutionTime = 0.86 s  ClockTime = 1 s

Courant Number mean: 0.0010966 max: 0.0187226
deltaT = 0.00282482
Time = 0.0169643

diagonal:  Solving for rho, Initial residual = 0, Final residual = 0, No Iterations 0
DILUPBiCGStab:  Solving for Ux, Initial residual = 0.407973, Final residual = 6.76845e-08, No Iterations 1
DILUPBiCGStab:  Solving for Uy, Initial residual = 0.469758, Final residual = 1.25042e-07, No Iterations 1
DILUPBiCGStab:  Solving for h, Initial residual = 0.0827065, Final residual = 9.10813e-09, No Iterations 1
   Solve transport equation for specific humidity
DILUPBiCGStab:  Solving for thermo:specificHumidity, Initial residual = 0.0476246, Final residual = 9.65992e-08, No Iterations 1
bounding thermo:specificHumidity, min: -1.30646e-75 max: 0.014803 average: 2.52178e-07
   Calculate the saturation pressure of water
   Calculate the partial pressure of water
   Calculate the relative humidity
   Calculate the water content
   Accounting for density change based on humidity
DICPCG:  Solving for p_rgh, Initial residual = 0.173514, Final residual = 0.00167493, No Iterations 28
diagonal:  Solving for rho, Initial residual = 0, Final residual = 0, No Iterations 0
time step continuity errors : sum local = 3.5015e-07, global = -3.78267e-08, cumulative = 1.23752e-07
DICPCG:  Solving for p_rgh, Initial residual = 0.00170792, Final residual = 9.90053e-09, No Iterations 87
diagonal:  Solving for rho, Initial residual = 0, Final residual = 0, No Iterations 0
time step continuity errors : sum local = 1.63102e-09, global = -1.13502e-09, cumulative = 1.22617e-07
ExecutionTime = 0.9 s  ClockTime = 1 s

Courant Number mean: 0.00154903 max: 0.0240289
deltaT = 0.00338978
Time = 0.0203541

diagonal:  Solving for rho, Initial residual = 0, Final residual = 0, No Iterations 0
DILUPBiCGStab:  Solving for Ux, Initial residual = 0.463921, Final residual = 2.15859e-07, No Iterations 1
DILUPBiCGStab:  Solving for Uy, Initial residual = 0.0557799, Final residual = 6.93741e-07, No Iterations 1
DILUPBiCGStab:  Solving for h, Initial residual = 0.0903996, Final residual = 1.84402e-08, No Iterations 1
   Solve transport equation for specific humidity
DILUPBiCGStab:  Solving for thermo:specificHumidity, Initial residual = 0.0476335, Final residual = 1.38715e-07, No Iterations 1
bounding thermo:specificHumidity, min: -3.35654e-69 max: 0.0148033 average: 3.02573e-07
   Calculate the saturation pressure of water
   Calculate the partial pressure of water
   Calculate the relative humidity
   Calculate the water content
   Accounting for density change based on humidity
DICPCG:  Solving for p_rgh, Initial residual = 0.0701049, Final residual = 0.000648465, No Iterations 45
diagonal:  Solving for rho, Initial residual = 0, Final residual = 0, No Iterations 0
time step continuity errors : sum local = 1.53031e-07, global = -1.4955e-08, cumulative = 1.07662e-07
DICPCG:  Solving for p_rgh, Initial residual = 0.000687938, Final residual = 8.60916e-09, No Iterations 92
diagonal:  Solving for rho, Initial residual = 0, Final residual = 0, No Iterations 0
time step continuity errors : sum local = 8.64318e-10, global = -6.50706e-10, cumulative = 1.07011e-07
ExecutionTime = 0.95 s  ClockTime = 1 s

Courant Number mean: 0.0020733 max: 0.0312659
deltaT = 0.00406492
Time = 0.024419

diagonal:  Solving for rho, Initial residual = 0, Final residual = 0, No Iterations 0
DILUPBiCGStab:  Solving for Ux, Initial residual = 0.367975, Final residual = 3.93511e-07, No Iterations 1
DILUPBiCGStab:  Solving for Uy, Initial residual = 0.26973, Final residual = 5.57681e-07, No Iterations 1
DILUPBiCGStab:  Solving for h, Initial residual = 0.0425428, Final residual = 1.12592e-08, No Iterations 1
   Solve transport equation for specific humidity
DILUPBiCGStab:  Solving for thermo:specificHumidity, Initial residual = 0.0476037, Final residual = 1.9524e-07, No Iterations 1
bounding thermo:specificHumidity, min: -1.19939e-65 max: 0.0148035 average: 3.62997e-07
   Calculate the saturation pressure of water
   Calculate the partial pressure of water
   Calculate the relative humidity
   Calculate the water content
   Accounting for density change based on humidity
DICPCG:  Solving for p_rgh, Initial residual = 0.0970781, Final residual = 0.00093309, No Iterations 56
diagonal:  Solving for rho, Initial residual = 0, Final residual = 0, No Iterations 0
time step continuity errors : sum local = 2.36832e-07, global = -2.07825e-08, cumulative = 8.62287e-08
DICPCG:  Solving for p_rgh, Initial residual = 0.00105745, Final residual = 9.97146e-09, No Iterations 103
diagonal:  Solving for rho, Initial residual = 0, Final residual = 0, No Iterations 0
time step continuity errors : sum local = 1.6831e-09, global = -3.07755e-10, cumulative = 8.59209e-08
ExecutionTime = 1 s  ClockTime = 1 s

Courant Number mean: 0.00298423 max: 0.0420847
deltaT = 0.00487791
Time = 0.0292969

diagonal:  Solving for rho, Initial residual = 0, Final residual = 0, No Iterations 0
DILUPBiCGStab:  Solving for Ux, Initial residual = 0.330977, Final residual = 8.64947e-11, No Iterations 1
DILUPBiCGStab:  Solving for Uy, Initial residual = 0.107209, Final residual = 1.89452e-10, No Iterations 1
DILUPBiCGStab:  Solving for h, Initial residual = 0.101902, Final residual = 4.17983e-08, No Iterations 1
   Solve transport equation for specific humidity
DILUPBiCGStab:  Solving for thermo:specificHumidity, Initial residual = 0.0476143, Final residual = 2.78154e-07, No Iterations 1
bounding thermo:specificHumidity, min: -8.34501e-65 max: 0.0148036 average: 4.35504e-07
   Calculate the saturation pressure of water
   Calculate the partial pressure of water
   Calculate the relative humidity
   Calculate the water content
   Accounting for density change based on humidity
DICPCG:  Solving for p_rgh, Initial residual = 0.113402, Final residual = 0.0010607, No Iterations 65
diagonal:  Solving for rho, Initial residual = 0, Final residual = 0, No Iterations 0
time step continuity errors : sum local = 2.78158e-07, global = -6.22101e-10, cumulative = 8.52988e-08
DICPCG:  Solving for p_rgh, Initial residual = 0.00136195, Final residual = 8.61407e-09, No Iterations 114
diagonal:  Solving for rho, Initial residual = 0, Final residual = 0, No Iterations 0
time step continuity errors : sum local = 2.37274e-09, global = -9.39159e-10, cumulative = 8.43597e-08
ExecutionTime = 1.06 s  ClockTime = 1 s

Courant Number mean: 0.0040586 max: 0.0612288
deltaT = 0.00584761
Time = 0.0351445

diagonal:  Solving for rho, Initial residual = 0, Final residual = 0, No Iterations 0
DILUPBiCGStab:  Solving for Ux, Initial residual = 0.2762, Final residual = 1.05934e-09, No Iterations 1
DILUPBiCGStab:  Solving for Uy, Initial residual = 0.13431, Final residual = 1.12927e-09, No Iterations 1
DILUPBiCGStab:  Solving for h, Initial residual = 0.161443, Final residual = 1.47198e-07, No Iterations 1
   Solve transport equation for specific humidity
DILUPBiCGStab:  Solving for thermo:specificHumidity, Initial residual = 0.0475856, Final residual = 3.99682e-07, No Iterations 1
bounding thermo:specificHumidity, min: -8.64526e-59 max: 0.0148039 average: 5.22438e-07
   Calculate the saturation pressure of water
   Calculate the partial pressure of water
   Calculate the relative humidity
   Calculate the water content
   Accounting for density change based on humidity
DICPCG:  Solving for p_rgh, Initial residual = 0.106095, Final residual = 0.0010483, No Iterations 71
diagonal:  Solving for rho, Initial residual = 0, Final residual = 0, No Iterations 0
time step continuity errors : sum local = 2.88119e-07, global = 3.49117e-09, cumulative = 8.78508e-08
DICPCG:  Solving for p_rgh, Initial residual = 0.00155176, Final residual = 9.23876e-09, No Iterations 120
diagonal:  Solving for rho, Initial residual = 0, Final residual = 0, No Iterations 0
time step continuity errors : sum local = 2.63076e-09, global = -2.17668e-09, cumulative = 8.56742e-08
ExecutionTime = 1.11 s  ClockTime = 1 s

Courant Number mean: 0.00527084 max: 0.0921314
deltaT = 0.00699171
Time = 0.0421362

diagonal:  Solving for rho, Initial residual = 0, Final residual = 0, No Iterations 0
DILUPBiCGStab:  Solving for Ux, Initial residual = 0.153851, Final residual = 5.36697e-09, No Iterations 1
DILUPBiCGStab:  Solving for Uy, Initial residual = 0.0987863, Final residual = 4.05721e-09, No Iterations 1
DILUPBiCGStab:  Solving for h, Initial residual = 0.189447, Final residual = 2.6691e-07, No Iterations 1
   Solve transport equation for specific humidity
DILUPBiCGStab:  Solving for thermo:specificHumidity, Initial residual = 0.047443, Final residual = 5.67204e-07, No Iterations 1
bounding thermo:specificHumidity, min: -2.22904e-59 max: 0.0148047 average: 6.26394e-07
   Calculate the saturation pressure of water
   Calculate the partial pressure of water
   Calculate the relative humidity
   Calculate the water content
   Accounting for density change based on humidity
DICPCG:  Solving for p_rgh, Initial residual = 0.111887, Final residual = 0.00107015, No Iterations 84
diagonal:  Solving for rho, Initial residual = 0, Final residual = 0, No Iterations 0
time step continuity errors : sum local = 3.19429e-07, global = 3.56997e-10, cumulative = 8.60312e-08
DICPCG:  Solving for p_rgh, Initial residual = 0.0019984, Final residual = 9.17199e-09, No Iterations 131
diagonal:  Solving for rho, Initial residual = 0, Final residual = 0, No Iterations 0
time step continuity errors : sum local = 3.58947e-09, global = -3.58947e-09, cumulative = 8.24417e-08
ExecutionTime = 1.18 s  ClockTime = 1 s

Courant Number mean: 0.00642526 max: 0.12974
deltaT = 0.00832925
Time = 0.0504655

diagonal:  Solving for rho, Initial residual = 0, Final residual = 0, No Iterations 0
DILUPBiCGStab:  Solving for Ux, Initial residual = 0.129737, Final residual = 1.78122e-08, No Iterations 1
DILUPBiCGStab:  Solving for Uy, Initial residual = 0.0601834, Final residual = 9.13595e-09, No Iterations 1
DILUPBiCGStab:  Solving for h, Initial residual = 0.256584, Final residual = 4.9975e-07, No Iterations 1
   Solve transport equation for specific humidity
DILUPBiCGStab:  Solving for thermo:specificHumidity, Initial residual = 0.0471551, Final residual = 7.90556e-07, No Iterations 1
bounding thermo:specificHumidity, min: -7.85063e-56 max: 0.0148056 average: 7.50234e-07
   Calculate the saturation pressure of water
   Calculate the partial pressure of water
   Calculate the relative humidity
   Calculate the water content
   Accounting for density change based on humidity
DICPCG:  Solving for p_rgh, Initial residual = 0.17147, Final residual = 0.00142746, No Iterations 85
diagonal:  Solving for rho, Initial residual = 0, Final residual = 0, No Iterations 0
time step continuity errors : sum local = 4.0653e-07, global = 1.17899e-09, cumulative = 8.36207e-08
DICPCG:  Solving for p_rgh, Initial residual = 0.0104293, Final residual = 8.68135e-09, No Iterations 148
diagonal:  Solving for rho, Initial residual = 0, Final residual = 0, No Iterations 0
time step continuity errors : sum local = 4.87226e-09, global = -4.87226e-09, cumulative = 7.87484e-08
ExecutionTime = 1.25 s  ClockTime = 1 s

Courant Number mean: 0.00746208 max: 0.159511
deltaT = 0.0099951
Time = 0.0604606

diagonal:  Solving for rho, Initial residual = 0, Final residual = 0, No Iterations 0
DILUPBiCGStab:  Solving for Ux, Initial residual = 0.104993, Final residual = 1.34789e-08, No Iterations 1
DILUPBiCGStab:  Solving for Uy, Initial residual = 0.0205659, Final residual = 6.64656e-09, No Iterations 1
DILUPBiCGStab:  Solving for h, Initial residual = 0.336443, Final residual = 5.06442e-10, No Iterations 1
   Solve transport equation for specific humidity
DILUPBiCGStab:  Solving for thermo:specificHumidity, Initial residual = 0.047241, Final residual = 4.68268e-11, No Iterations 1
bounding thermo:specificHumidity, min: -7.28326e-56 max: 0.0148063 average: 8.98829e-07
   Calculate the saturation pressure of water
   Calculate the partial pressure of water
   Calculate the relative humidity
   Calculate the water content
   Accounting for density change based on humidity
DICPCG:  Solving for p_rgh, Initial residual = 0.425779, Final residual = 0.00363495, No Iterations 84
diagonal:  Solving for rho, Initial residual = 0, Final residual = 0, No Iterations 0
time step continuity errors : sum local = 4.86837e-07, global = 1.60199e-09, cumulative = 8.03504e-08
DICPCG:  Solving for p_rgh, Initial residual = 0.00503543, Final residual = 8.50553e-09, No Iterations 150
diagonal:  Solving for rho, Initial residual = 0, Final residual = 0, No Iterations 0
time step continuity errors : sum local = 5.39293e-09, global = -5.39293e-09, cumulative = 7.49575e-08
ExecutionTime = 1.32 s  ClockTime = 1 s

Courant Number mean: 0.00826745 max: 0.165474
deltaT = 0.0118929
Time = 0.0723535

diagonal:  Solving for rho, Initial residual = 0, Final residual = 0, No Iterations 0
DILUPBiCGStab:  Solving for Ux, Initial residual = 0.166199, Final residual = 5.59418e-08, No Iterations 1
DILUPBiCGStab:  Solving for Uy, Initial residual = 0.0463784, Final residual = 2.19311e-08, No Iterations 1
DILUPBiCGStab:  Solving for h, Initial residual = 0.357388, Final residual = 6.28044e-10, No Iterations 1
   Solve transport equation for specific humidity
DILUPBiCGStab:  Solving for thermo:specificHumidity, Initial residual = 0.0469371, Final residual = 9.03788e-11, No Iterations 1
bounding thermo:specificHumidity, min: -1.9439e-56 max: 0.0148069 average: 1.07563e-06
   Calculate the saturation pressure of water
   Calculate the partial pressure of water
   Calculate the relative humidity
   Calculate the water content
   Accounting for density change based on humidity
DICPCG:  Solving for p_rgh, Initial residual = 0.125208, Final residual = 0.00115976, No Iterations 88
diagonal:  Solving for rho, Initial residual = 0, Final residual = 0, No Iterations 0
time step continuity errors : sum local = 4.46617e-07, global = 5.79594e-09, cumulative = 8.07534e-08
DICPCG:  Solving for p_rgh, Initial residual = 0.00181801, Final residual = 9.37395e-09, No Iterations 147
diagonal:  Solving for rho, Initial residual = 0, Final residual = 0, No Iterations 0
time step continuity errors : sum local = 4.32057e-09, global = -4.32056e-09, cumulative = 7.64329e-08
ExecutionTime = 1.39 s  ClockTime = 1 s

Courant Number mean: 0.008157 max: 0.133625
deltaT = 0.0142715
Time = 0.0866249

diagonal:  Solving for rho, Initial residual = 0, Final residual = 0, No Iterations 0
DILUPBiCGStab:  Solving for Ux, Initial residual = 0.464209, Final residual = 1.02237e-07, No Iterations 1
DILUPBiCGStab:  Solving for Uy, Initial residual = 0.155078, Final residual = 4.71409e-08, No Iterations 1
DILUPBiCGStab:  Solving for h, Initial residual = 0.291034, Final residual = 1.66686e-10, No Iterations 1
   Solve transport equation for specific humidity
DILUPBiCGStab:  Solving for thermo:specificHumidity, Initial residual = 0.0470635, Final residual = 1.81281e-10, No Iterations 1
bounding thermo:specificHumidity, min: -4.80206e-51 max: 0.0148075 average: 1.28778e-06
   Calculate the saturation pressure of water
   Calculate the partial pressure of water
   Calculate the relative humidity
   Calculate the water content
   Accounting for density change based on humidity
DICPCG:  Solving for p_rgh, Initial residual = 0.0203581, Final residual = 0.000202866, No Iterations 104
diagonal:  Solving for rho, Initial residual = 0, Final residual = 0, No Iterations 0
time step continuity errors : sum local = 2.02072e-07, global = 1.59013e-09, cumulative = 7.8023e-08
DICPCG:  Solving for p_rgh, Initial residual = 0.00042963, Final residual = 9.4729e-09, No Iterations 144
diagonal:  Solving for rho, Initial residual = 0, Final residual = 0, No Iterations 0
time step continuity errors : sum local = 1.49388e-09, global = -1.49376e-09, cumulative = 7.65292e-08
ExecutionTime = 1.46 s  ClockTime = 2 s

Courant Number mean: 0.00666441 max: 0.0929677
deltaT = 0.0169144
Time = 0.103539

diagonal:  Solving for rho, Initial residual = 0, Final residual = 0, No Iterations 0
DILUPBiCGStab:  Solving for Ux, Initial residual = 0.773207, Final residual = 2.79584e-08, No Iterations 1
DILUPBiCGStab:  Solving for Uy, Initial residual = 0.33007, Final residual = 1.77648e-08, No Iterations 1
DILUPBiCGStab:  Solving for h, Initial residual = 0.106162, Final residual = 9.2272e-07, No Iterations 1
   Solve transport equation for specific humidity
DILUPBiCGStab:  Solving for thermo:specificHumidity, Initial residual = 0.0466075, Final residual = 3.38168e-10, No Iterations 1
bounding thermo:specificHumidity, min: -1.84702e-51 max: 0.0148079 average: 1.53916e-06
   Calculate the saturation pressure of water
   Calculate the partial pressure of water
   Calculate the relative humidity
   Calculate the water content
   Accounting for density change based on humidity
DICPCG:  Solving for p_rgh, Initial residual = 0.0209139, Final residual = 0.000172215, No Iterations 104
diagonal:  Solving for rho, Initial residual = 0, Final residual = 0, No Iterations 0
time step continuity errors : sum local = 2.84086e-07, global = 2.66773e-10, cumulative = 7.6796e-08
DICPCG:  Solving for p_rgh, Initial residual = 0.000677553, Final residual = 9.26895e-09, No Iterations 150
diagonal:  Solving for rho, Initial residual = 0, Final residual = 0, No Iterations 0
time step continuity errors : sum local = 2.39934e-09, global = 2.39929e-09, cumulative = 7.91953e-08
ExecutionTime = 1.53 s  ClockTime = 2 s

Courant Number mean: 0.00432826 max: 0.0503925
deltaT = 0.0199213
Time = 0.123461

diagonal:  Solving for rho, Initial residual = 0, Final residual = 0, No Iterations 0
DILUPBiCGStab:  Solving for Ux, Initial residual = 0.64845, Final residual = 4.87267e-10, No Iterations 1
DILUPBiCGStab:  Solving for Uy, Initial residual = 0.433495, Final residual = 3.27819e-10, No Iterations 1
DILUPBiCGStab:  Solving for h, Initial residual = 0.164637, Final residual = 1.29247e-10, No Iterations 1
   Solve transport equation for specific humidity
DILUPBiCGStab:  Solving for thermo:specificHumidity, Initial residual = 0.0459435, Final residual = 6.06538e-10, No Iterations 1
bounding thermo:specificHumidity, min: -5.93941e-51 max: 0.0148075 average: 1.83511e-06
   Calculate the saturation pressure of water
   Calculate the partial pressure of water
   Calculate the relative humidity
   Calculate the water content
   Accounting for density change based on humidity
DICPCG:  Solving for p_rgh, Initial residual = 0.0406054, Final residual = 0.000403282, No Iterations 96
diagonal:  Solving for rho, Initial residual = 0, Final residual = 0, No Iterations 0
time step continuity errors : sum local = 7.26409e-07, global = 2.56231e-09, cumulative = 8.17576e-08
DICPCG:  Solving for p_rgh, Initial residual = 0.00284883, Final residual = 9.92743e-09, No Iterations 156
diagonal:  Solving for rho, Initial residual = 0, Final residual = 0, No Iterations 0
time step continuity errors : sum local = 5.35264e-09, global = 5.35264e-09, cumulative = 8.71102e-08
ExecutionTime = 1.61 s  ClockTime = 2 s

Courant Number mean: 0.00374302 max: 0.0660511
deltaT = 0.0236903
Time = 0.147151

diagonal:  Solving for rho, Initial residual = 0, Final residual = 0, No Iterations 0
DILUPBiCGStab:  Solving for Ux, Initial residual = 0.309929, Final residual = 3.14083e-11, No Iterations 1
DILUPBiCGStab:  Solving for Uy, Initial residual = 0.198059, Final residual = 6.09261e-11, No Iterations 1
DILUPBiCGStab:  Solving for h, Initial residual = 0.348921, Final residual = 4.15583e-10, No Iterations 1
   Solve transport equation for specific humidity
DILUPBiCGStab:  Solving for thermo:specificHumidity, Initial residual = 0.0458152, Final residual = 1.13809e-09, No Iterations 1
bounding thermo:specificHumidity, min: -8.86004e-47 max: 0.0148066 average: 2.18692e-06
   Calculate the saturation pressure of water
   Calculate the partial pressure of water
   Calculate the relative humidity
   Calculate the water content
   Accounting for density change based on humidity
DICPCG:  Solving for p_rgh, Initial residual = 0.101829, Final residual = 0.000940172, No Iterations 101
diagonal:  Solving for rho, Initial residual = 0, Final residual = 0, No Iterations 0
time step continuity errors : sum local = 7.48617e-07, global = 4.14654e-10, cumulative = 8.75249e-08
DICPCG:  Solving for p_rgh, Initial residual = 0.00213991, Final residual = 9.64887e-09, No Iterations 156
diagonal:  Solving for rho, Initial residual = 0, Final residual = 0, No Iterations 0
time step continuity errors : sum local = 5.06177e-09, global = 5.06173e-09, cumulative = 9.25866e-08
ExecutionTime = 1.68 s  ClockTime = 2 s

Courant Number mean: 0.0068503 max: 0.0739894
deltaT = 0.0284283
Time = 0.175579

diagonal:  Solving for rho, Initial residual = 0, Final residual = 0, No Iterations 0
DILUPBiCGStab:  Solving for Ux, Initial residual = 0.558492, Final residual = 5.43681e-09, No Iterations 1
DILUPBiCGStab:  Solving for Uy, Initial residual = 0.214951, Final residual = 2.69377e-09, No Iterations 1
DILUPBiCGStab:  Solving for h, Initial residual = 0.336147, Final residual = 9.75952e-10, No Iterations 1
   Solve transport equation for specific humidity
DILUPBiCGStab:  Solving for thermo:specificHumidity, Initial residual = 0.0461161, Final residual = 2.22786e-09, No Iterations 1
bounding thermo:specificHumidity, min: -3.29325e-47 max: 0.0148057 average: 2.60905e-06
   Calculate the saturation pressure of water
   Calculate the partial pressure of water
   Calculate the relative humidity
   Calculate the water content
   Accounting for density change based on humidity
DICPCG:  Solving for p_rgh, Initial residual = 0.0218139, Final residual = 0.000205498, No Iterations 112
diagonal:  Solving for rho, Initial residual = 0, Final residual = 0, No Iterations 0
time step continuity errors : sum local = 2.84574e-07, global = -1.92862e-09, cumulative = 9.0658e-08
DICPCG:  Solving for p_rgh, Initial residual = 0.000579824, Final residual = 8.07867e-09, No Iterations 154
diagonal:  Solving for rho, Initial residual = 0, Final residual = 0, No Iterations 0
time step continuity errors : sum local = 1.20472e-09, global = 1.20373e-09, cumulative = 9.18617e-08
ExecutionTime = 1.75 s  ClockTime = 2 s

Courant Number mean: 0.0134573 max: 0.17646
deltaT = 0.0329768
Time = 0.208556

diagonal:  Solving for rho, Initial residual = 0, Final residual = 0, No Iterations 0
DILUPBiCGStab:  Solving for Ux, Initial residual = 0.683949, Final residual = 3.65555e-07, No Iterations 1
DILUPBiCGStab:  Solving for Uy, Initial residual = 0.171842, Final residual = 1.54783e-07, No Iterations 1
DILUPBiCGStab:  Solving for h, Initial residual = 0.088129, Final residual = 1.26136e-09, No Iterations 1
   Solve transport equation for specific humidity
DILUPBiCGStab:  Solving for thermo:specificHumidity, Initial residual = 0.0449037, Final residual = 3.66055e-09, No Iterations 1
bounding thermo:specificHumidity, min: -1.04254e-44 max: 0.0148055 average: 3.09879e-06
   Calculate the saturation pressure of water
   Calculate the partial pressure of water
   Calculate the relative humidity
   Calculate the water content
   Accounting for density change based on humidity
DICPCG:  Solving for p_rgh, Initial residual = 0.0277115, Final residual = 0.000243839, No Iterations 114
diagonal:  Solving for rho, Initial residual = 0, Final residual = 0, No Iterations 0
time step continuity errors : sum local = 5.64597e-07, global = -4.24162e-10, cumulative = 9.14376e-08
DICPCG:  Solving for p_rgh, Initial residual = 0.00437411, Final residual = 8.29055e-09, No Iterations 165
diagonal:  Solving for rho, Initial residual = 0, Final residual = 0, No Iterations 0
time step continuity errors : sum local = 2.52196e-09, global = -2.5213e-09, cumulative = 8.89163e-08
ExecutionTime = 1.83 s  ClockTime = 2 s

Courant Number mean: 0.0181997 max: 0.266703
deltaT = 0.0376878
Time = 0.246244

diagonal:  Solving for rho, Initial residual = 0, Final residual = 0, No Iterations 0
DILUPBiCGStab:  Solving for Ux, Initial residual = 0.359962, Final residual = 7.84329e-07, No Iterations 1
DILUPBiCGStab:  Solving for Uy, Initial residual = 0.0676107, Final residual = 2.54104e-07, No Iterations 1
DILUPBiCGStab:  Solving for h, Initial residual = 0.159262, Final residual = 2.96313e-09, No Iterations 1
   Solve transport equation for specific humidity
DILUPBiCGStab:  Solving for thermo:specificHumidity, Initial residual = 0.0432845, Final residual = 5.53921e-09, No Iterations 1
bounding thermo:specificHumidity, min: -1.42436e-44 max: 0.0148059 average: 3.6585e-06
   Calculate the saturation pressure of water
   Calculate the partial pressure of water
   Calculate the relative humidity
   Calculate the water content
   Accounting for density change based on humidity
DICPCG:  Solving for p_rgh, Initial residual = 0.0584589, Final residual = 0.000568927, No Iterations 110
diagonal:  Solving for rho, Initial residual = 0, Final residual = 0, No Iterations 0
time step continuity errors : sum local = 6.42106e-07, global = 1.6849e-09, cumulative = 9.06012e-08
DICPCG:  Solving for p_rgh, Initial residual = 0.00938422, Final residual = 8.78881e-09, No Iterations 169
diagonal:  Solving for rho, Initial residual = 0, Final residual = 0, No Iterations 0
time step continuity errors : sum local = 2.45433e-09, global = -2.45315e-09, cumulative = 8.8148e-08
ExecutionTime = 1.91 s  ClockTime = 2 s

Courant Number mean: 0.0187715 max: 0.26668
deltaT = 0.0443386
Time = 0.290582

diagonal:  Solving for rho, Initial residual = 0, Final residual = 0, No Iterations 0
DILUPBiCGStab:  Solving for Ux, Initial residual = 0.357444, Final residual = 8.40884e-07, No Iterations 1
DILUPBiCGStab:  Solving for Uy, Initial residual = 0.0596938, Final residual = 2.08264e-07, No Iterations 1
DILUPBiCGStab:  Solving for h, Initial residual = 0.154744, Final residual = 5.8092e-09, No Iterations 1
   Solve transport equation for specific humidity
DILUPBiCGStab:  Solving for thermo:specificHumidity, Initial residual = 0.0431305, Final residual = 9.5668e-09, No Iterations 1
bounding thermo:specificHumidity, min: -8.42606e-43 max: 0.0148063 average: 4.31676e-06
   Calculate the saturation pressure of water
   Calculate the partial pressure of water
   Calculate the relative humidity
   Calculate the water content
   Accounting for density change based on humidity
DICPCG:  Solving for p_rgh, Initial residual = 0.013463, Final residual = 0.000108005, No Iterations 121
diagonal:  Solving for rho, Initial residual = 0, Final residual = 0, No Iterations 0
time step continuity errors : sum local = 9.24139e-08, global = 8.77419e-10, cumulative = 8.90254e-08
DICPCG:  Solving for p_rgh, Initial residual = 0.0010908, Final residual = 7.4979e-09, No Iterations 160
diagonal:  Solving for rho, Initial residual = 0, Final residual = 0, No Iterations 0
time step continuity errors : sum local = 1.53529e-10, global = -8.84254e-11, cumulative = 8.8937e-08
ExecutionTime = 1.99 s  ClockTime = 2 s

Courant Number mean: 0.0191134 max: 0.263068
deltaT = 0.0506727
Time = 0.341255

diagonal:  Solving for rho, Initial residual = 0, Final residual = 0, No Iterations 0
DILUPBiCGStab:  Solving for Ux, Initial residual = 0.462456, Final residual = 8.59148e-07, No Iterations 1
DILUPBiCGStab:  Solving for Uy, Initial residual = 0.0890783, Final residual = 2.42034e-07, No Iterations 1
DILUPBiCGStab:  Solving for h, Initial residual = 0.0217045, Final residual = 5.98543e-09, No Iterations 1
   Solve transport equation for specific humidity
DILUPBiCGStab:  Solving for thermo:specificHumidity, Initial residual = 0.0418213, Final residual = 1.41004e-08, No Iterations 1
bounding thermo:specificHumidity, min: -3.16859e-40 max: 0.0148064 average: 5.06868e-06
   Calculate the saturation pressure of water
   Calculate the partial pressure of water
   Calculate the relative humidity
   Calculate the water content
   Accounting for density change based on humidity
DICPCG:  Solving for p_rgh, Initial residual = 0.0363219, Final residual = 0.000349746, No Iterations 115
diagonal:  Solving for rho, Initial residual = 0, Final residual = 0, No Iterations 0
time step continuity errors : sum local = 4.2238e-07, global = 7.34923e-12, cumulative = 8.89444e-08
DICPCG:  Solving for p_rgh, Initial residual = 0.0389314, Final residual = 8.71543e-09, No Iterations 179
diagonal:  Solving for rho, Initial residual = 0, Final residual = 0, No Iterations 0
time step continuity errors : sum local = 9.48466e-10, global = 9.35045e-10, cumulative = 8.98794e-08
ExecutionTime = 2.07 s  ClockTime = 2 s

Courant Number mean: 0.0217286 max: 0.29432
deltaT = 0.0548954
Time = 0.396151

diagonal:  Solving for rho, Initial residual = 0, Final residual = 0, No Iterations 0
DILUPBiCGStab:  Solving for Ux, Initial residual = 0.0238194, Final residual = 2.19318e-08, No Iterations 1
DILUPBiCGStab:  Solving for Uy, Initial residual = 0.00456732, Final residual = 5.94675e-09, No Iterations 1
DILUPBiCGStab:  Solving for h, Initial residual = 0.0648446, Final residual = 1.06342e-08, No Iterations 1
   Solve transport equation for specific humidity
DILUPBiCGStab:  Solving for thermo:specificHumidity, Initial residual = 0.0387055, Final residual = 1.5841e-08, No Iterations 1
bounding thermo:specificHumidity, min: -1.05766e-40 max: 0.0148062 average: 5.883e-06
   Calculate the saturation pressure of water
   Calculate the partial pressure of water
   Calculate the relative humidity
   Calculate the water content
   Accounting for density change based on humidity
DICPCG:  Solving for p_rgh, Initial residual = 0.191388, Final residual = 0.0016534, No Iterations 110
diagonal:  Solving for rho, Initial residual = 0, Final residual = 0, No Iterations 0
time step continuity errors : sum local = 1.41738e-07, global = -1.27393e-10, cumulative = 8.9752e-08
DICPCG:  Solving for p_rgh, Initial residual = 0.00397018, Final residual = 9.9581e-09, No Iterations 167
diagonal:  Solving for rho, Initial residual = 0, Final residual = 0, No Iterations 0
time step continuity errors : sum local = 3.45611e-10, global = 2.8892e-10, cumulative = 9.00409e-08
ExecutionTime = 2.14 s  ClockTime = 2 s

Courant Number mean: 0.0247203 max: 0.337278
deltaT = 0.0603849
Time = 0.456535

diagonal:  Solving for rho, Initial residual = 0, Final residual = 0, No Iterations 0
[...]
   Calculate the partial pressure of water
   Calculate the relative humidity
   Calculate the water content
   Accounting for density change based on humidity
DICPCG:  Solving for p_rgh, Initial residual = 0.0100755, Final residual = 9.5818e-05, No Iterations 101
diagonal:  Solving for rho, Initial residual = 0, Final residual = 0, No Iterations 0
time step continuity errors : sum local = 2.76099e-07, global = -1.30123e-09, cumulative = -6.3869e-06
DICPCG:  Solving for p_rgh, Initial residual = 0.000658391, Final residual = 8.91247e-09, No Iterations 144
diagonal:  Solving for rho, Initial residual = 0, Final residual = 0, No Iterations 0
time step continuity errors : sum local = 3.5977e-10, global = 1.24282e-12, cumulative = -6.3869e-06
ExecutionTime = 33.6 s  ClockTime = 34 s

Courant Number mean: 0.0417382 max: 0.474945
deltaT = 0.0769231
Time = 39.1538

diagonal:  Solving for rho, Initial residual = 0, Final residual = 0, No Iterations 0
DILUPBiCGStab:  Solving for Ux, Initial residual = 0.00201852, Final residual = 2.22716e-09, No Iterations 1
DILUPBiCGStab:  Solving for Uy, Initial residual = 0.00396634, Final residual = 2.8169e-09, No Iterations 1
DILUPBiCGStab:  Solving for h, Initial residual = 0.00193779, Final residual = 9.13733e-07, No Iterations 1
   Solve transport equation for specific humidity
DILUPBiCGStab:  Solving for thermo:specificHumidity, Initial residual = 0.00196357, Final residual = 9.05524e-07, No Iterations 1
bounding thermo:specificHumidity, min: -9.27001e-11 max: 0.0235385 average: 0.00058803
   Calculate the saturation pressure of water
   Calculate the partial pressure of water
   Calculate the relative humidity
   Calculate the water content
   Accounting for density change based on humidity
DICPCG:  Solving for p_rgh, Initial residual = 0.00999784, Final residual = 9.60902e-05, No Iterations 12
diagonal:  Solving for rho, Initial residual = 0, Final residual = 0, No Iterations 0
time step continuity errors : sum local = 2.77342e-07, global = -1.09286e-08, cumulative = -6.39783e-06
DICPCG:  Solving for p_rgh, Initial residual = 0.000564357, Final residual = 9.74901e-09, No Iterations 144
diagonal:  Solving for rho, Initial residual = 0, Final residual = 0, No Iterations 0
time step continuity errors : sum local = 3.53074e-10, global = -4.42157e-13, cumulative = -6.39783e-06
ExecutionTime = 33.65 s  ClockTime = 34 s

Courant Number mean: 0.0417578 max: 0.475004
deltaT = 0.0769231
Time = 39.2308

diagonal:  Solving for rho, Initial residual = 0, Final residual = 0, No Iterations 0
DILUPBiCGStab:  Solving for Ux, Initial residual = 0.00197645, Final residual = 2.11564e-09, No Iterations 1
DILUPBiCGStab:  Solving for Uy, Initial residual = 0.0039579, Final residual = 2.69092e-09, No Iterations 1
DILUPBiCGStab:  Solving for h, Initial residual = 0.00193401, Final residual = 9.11072e-07, No Iterations 1
   Solve transport equation for specific humidity
DILUPBiCGStab:  Solving for thermo:specificHumidity, Initial residual = 0.00195929, Final residual = 9.01366e-07, No Iterations 1
bounding thermo:specificHumidity, min: -1.47941e-07 max: 0.023492 average: 0.000589168
   Calculate the saturation pressure of water
   Calculate the partial pressure of water
   Calculate the relative humidity
   Calculate the water content
   Accounting for density change based on humidity
DICPCG:  Solving for p_rgh, Initial residual = 0.0101597, Final residual = 9.12094e-05, No Iterations 11
diagonal:  Solving for rho, Initial residual = 0, Final residual = 0, No Iterations 0
time step continuity errors : sum local = 2.63333e-07, global = -2.57337e-08, cumulative = -6.42356e-06
DICPCG:  Solving for p_rgh, Initial residual = 0.00055933, Final residual = 9.09273e-09, No Iterations 143
diagonal:  Solving for rho, Initial residual = 0, Final residual = 0, No Iterations 0
time step continuity errors : sum local = 3.52581e-10, global = 1.78771e-12, cumulative = -6.42356e-06
ExecutionTime = 33.7 s  ClockTime = 34 s

Courant Number mean: 0.0417741 max: 0.47501
deltaT = 0.0769231
Time = 39.3077

diagonal:  Solving for rho, Initial residual = 0, Final residual = 0, No Iterations 0
DILUPBiCGStab:  Solving for Ux, Initial residual = 0.00194195, Final residual = 2.01941e-09, No Iterations 1
DILUPBiCGStab:  Solving for Uy, Initial residual = 0.00393871, Final residual = 2.50158e-09, No Iterations 1
DILUPBiCGStab:  Solving for h, Initial residual = 0.0019299, Final residual = 9.08834e-07, No Iterations 1
   Solve transport equation for specific humidity
DILUPBiCGStab:  Solving for thermo:specificHumidity, Initial residual = 0.00195857, Final residual = 8.99466e-07, No Iterations 1
bounding thermo:specificHumidity, min: -1.18434e-06 max: 0.0233786 average: 0.000590308
   Calculate the saturation pressure of water
   Calculate the partial pressure of water
   Calculate the relative humidity
   Calculate the water content
   Accounting for density change based on humidity
DICPCG:  Solving for p_rgh, Initial residual = 0.0307672, Final residual = 0.000281803, No Iterations 7
diagonal:  Solving for rho, Initial residual = 0, Final residual = 0, No Iterations 0
time step continuity errors : sum local = 8.21227e-07, global = -1.95074e-07, cumulative = -6.61863e-06
DICPCG:  Solving for p_rgh, Initial residual = 0.000722197, Final residual = 8.8911e-09, No Iterations 153
diagonal:  Solving for rho, Initial residual = 0, Final residual = 0, No Iterations 0
time step continuity errors : sum local = 3.66073e-10, global = -3.61688e-13, cumulative = -6.61863e-06
ExecutionTime = 33.75 s  ClockTime = 34 s

Courant Number mean: 0.0417576 max: 0.474646
deltaT = 0.0769231
Time = 39.3846

diagonal:  Solving for rho, Initial residual = 0, Final residual = 0, No Iterations 0
DILUPBiCGStab:  Solving for Ux, Initial residual = 0.00295677, Final residual = 2.98747e-09, No Iterations 1
DILUPBiCGStab:  Solving for Uy, Initial residual = 0.00462554, Final residual = 4.25679e-09, No Iterations 1
DILUPBiCGStab:  Solving for h, Initial residual = 0.00192822, Final residual = 9.08339e-07, No Iterations 1
   Solve transport equation for specific humidity
DILUPBiCGStab:  Solving for thermo:specificHumidity, Initial residual = 0.00195506, Final residual = 8.98069e-07, No Iterations 1
bounding thermo:specificHumidity, min: -8.66916e-07 max: 0.0231995 average: 0.000591647
   Calculate the saturation pressure of water
   Calculate the partial pressure of water
   Calculate the relative humidity
   Calculate the water content
   Accounting for density change based on humidity
DICPCG:  Solving for p_rgh, Initial residual = 0.0102313, Final residual = 9.27484e-05, No Iterations 113
diagonal:  Solving for rho, Initial residual = 0, Final residual = 0, No Iterations 0
time step continuity errors : sum local = 2.72148e-07, global = -1.2656e-09, cumulative = -6.6199e-06
DICPCG:  Solving for p_rgh, Initial residual = 0.000680608, Final residual = 8.2186e-09, No Iterations 144
diagonal:  Solving for rho, Initial residual = 0, Final residual = 0, No Iterations 0
time step continuity errors : sum local = 3.45634e-10, global = 6.52781e-12, cumulative = -6.61989e-06
ExecutionTime = 33.82 s  ClockTime = 34 s

Courant Number mean: 0.0417993 max: 0.474867
deltaT = 0.0769231
Time = 39.4615

diagonal:  Solving for rho, Initial residual = 0, Final residual = 0, No Iterations 0
DILUPBiCGStab:  Solving for Ux, Initial residual = 0.00233001, Final residual = 3.05497e-09, No Iterations 1
DILUPBiCGStab:  Solving for Uy, Initial residual = 0.00413157, Final residual = 3.5896e-09, No Iterations 1
DILUPBiCGStab:  Solving for h, Initial residual = 0.00192332, Final residual = 9.08912e-07, No Iterations 1
   Solve transport equation for specific humidity
DILUPBiCGStab:  Solving for thermo:specificHumidity, Initial residual = 0.00194942, Final residual = 9.00261e-07, No Iterations 1
bounding thermo:specificHumidity, min: -1.50794e-07 max: 0.0229566 average: 0.000592789
   Calculate the saturation pressure of water
   Calculate the partial pressure of water
   Calculate the relative humidity
   Calculate the water content
   Accounting for density change based on humidity
DICPCG:  Solving for p_rgh, Initial residual = 0.0100156, Final residual = 8.00954e-05, No Iterations 110
diagonal:  Solving for rho, Initial residual = 0, Final residual = 0, No Iterations 0
time step continuity errors : sum local = 2.36154e-07, global = 5.20166e-10, cumulative = -6.61937e-06
DICPCG:  Solving for p_rgh, Initial residual = 0.000567441, Final residual = 9.41303e-09, No Iterations 144
diagonal:  Solving for rho, Initial residual = 0, Final residual = 0, No Iterations 0
time step continuity errors : sum local = 3.54995e-10, global = -1.69727e-12, cumulative = -6.61937e-06
ExecutionTime = 33.89 s  ClockTime = 34 s

Courant Number mean: 0.0418271 max: 0.475064
deltaT = 0.0769231
Time = 39.5385

diagonal:  Solving for rho, Initial residual = 0, Final residual = 0, No Iterations 0
DILUPBiCGStab:  Solving for Ux, Initial residual = 0.00211866, Final residual = 2.56998e-09, No Iterations 1
DILUPBiCGStab:  Solving for Uy, Initial residual = 0.00401992, Final residual = 3.28693e-09, No Iterations 1
DILUPBiCGStab:  Solving for h, Initial residual = 0.00191469, Final residual = 9.10394e-07, No Iterations 1
   Solve transport equation for specific humidity
DILUPBiCGStab:  Solving for thermo:specificHumidity, Initial residual = 0.0019422, Final residual = 9.02868e-07, No Iterations 1
bounding thermo:specificHumidity, min: -4.1006e-06 max: 0.0228409 average: 0.000593929
   Calculate the saturation pressure of water
   Calculate the partial pressure of water
   Calculate the relative humidity
   Calculate the water content
   Accounting for density change based on humidity
DICPCG:  Solving for p_rgh, Initial residual = 0.025117, Final residual = 0.000249383, No Iterations 8
diagonal:  Solving for rho, Initial residual = 0, Final residual = 0, No Iterations 0
time step continuity errors : sum local = 7.40872e-07, global = -2.44187e-07, cumulative = -6.86356e-06
DICPCG:  Solving for p_rgh, Initial residual = 0.000682179, Final residual = 8.63589e-09, No Iterations 150
diagonal:  Solving for rho, Initial residual = 0, Final residual = 0, No Iterations 0
time step continuity errors : sum local = 3.57565e-10, global = -8.94673e-13, cumulative = -6.86356e-06
ExecutionTime = 33.95 s  ClockTime = 34 s

Courant Number mean: 0.0418183 max: 0.474825
deltaT = 0.0769231
Time = 39.6154

diagonal:  Solving for rho, Initial residual = 0, Final residual = 0, No Iterations 0
DILUPBiCGStab:  Solving for Ux, Initial residual = 0.00270173, Final residual = 2.82651e-09, No Iterations 1
DILUPBiCGStab:  Solving for Uy, Initial residual = 0.00445352, Final residual = 4.00438e-09, No Iterations 1
DILUPBiCGStab:  Solving for h, Initial residual = 0.00191413, Final residual = 9.11322e-07, No Iterations 1
   Solve transport equation for specific humidity
DILUPBiCGStab:  Solving for thermo:specificHumidity, Initial residual = 0.00194323, Final residual = 9.02873e-07, No Iterations 1
bounding thermo:specificHumidity, min: -3.65572e-06 max: 0.022779 average: 0.000595214
   Calculate the saturation pressure of water
   Calculate the partial pressure of water
   Calculate the relative humidity
   Calculate the water content
   Accounting for density change based on humidity
DICPCG:  Solving for p_rgh, Initial residual = 0.0124154, Final residual = 0.000107393, No Iterations 110
diagonal:  Solving for rho, Initial residual = 0, Final residual = 0, No Iterations 0
time step continuity errors : sum local = 3.21113e-07, global = -4.47334e-10, cumulative = -6.86401e-06
DICPCG:  Solving for p_rgh, Initial residual = 0.000673448, Final residual = 7.43281e-09, No Iterations 145
diagonal:  Solving for rho, Initial residual = 0, Final residual = 0, No Iterations 0
time step continuity errors : sum local = 3.58641e-10, global = 5.02185e-12, cumulative = -6.864e-06
ExecutionTime = 34.01 s  ClockTime = 34 s

Courant Number mean: 0.0418478 max: 0.474893
deltaT = 0.0769231
Time = 39.6923

diagonal:  Solving for rho, Initial residual = 0, Final residual = 0, No Iterations 0
DILUPBiCGStab:  Solving for Ux, Initial residual = 0.00210813, Final residual = 2.35549e-09, No Iterations 1
DILUPBiCGStab:  Solving for Uy, Initial residual = 0.00407829, Final residual = 2.97014e-09, No Iterations 1
DILUPBiCGStab:  Solving for h, Initial residual = 0.00192699, Final residual = 9.09374e-07, No Iterations 1
   Solve transport equation for specific humidity
DILUPBiCGStab:  Solving for thermo:specificHumidity, Initial residual = 0.00195583, Final residual = 9.0134e-07, No Iterations 1
bounding thermo:specificHumidity, min: -1.38856e-06 max: 0.0230989 average: 0.00059638
   Calculate the saturation pressure of water
   Calculate the partial pressure of water
   Calculate the relative humidity
   Calculate the water content
   Accounting for density change based on humidity
DICPCG:  Solving for p_rgh, Initial residual = 0.0128304, Final residual = 0.00012531, No Iterations 52
diagonal:  Solving for rho, Initial residual = 0, Final residual = 0, No Iterations 0
time step continuity errors : sum local = 3.76841e-07, global = -1.11321e-08, cumulative = -6.87514e-06
DICPCG:  Solving for p_rgh, Initial residual = 0.000616704, Final residual = 7.99646e-09, No Iterations 144
diagonal:  Solving for rho, Initial residual = 0, Final residual = 0, No Iterations 0
time step continuity errors : sum local = 3.50549e-10, global = 9.96285e-13, cumulative = -6.87513e-06
ExecutionTime = 34.08 s  ClockTime = 34 s

Courant Number mean: 0.0418711 max: 0.475005
deltaT = 0.0769231
Time = 39.7692

diagonal:  Solving for rho, Initial residual = 0, Final residual = 0, No Iterations 0
DILUPBiCGStab:  Solving for Ux, Initial residual = 0.00207138, Final residual = 2.29384e-09, No Iterations 1
DILUPBiCGStab:  Solving for Uy, Initial residual = 0.00404307, Final residual = 2.99041e-09, No Iterations 1
DILUPBiCGStab:  Solving for h, Initial residual = 0.00193306, Final residual = 9.05765e-07, No Iterations 1
   Solve transport equation for specific humidity
DILUPBiCGStab:  Solving for thermo:specificHumidity, Initial residual = 0.00196312, Final residual = 8.99581e-07, No Iterations 1
bounding thermo:specificHumidity, min: -3.03432e-05 max: 0.0233589 average: 0.000597549
   Calculate the saturation pressure of water
   Calculate the partial pressure of water
   Calculate the relative humidity
   Calculate the water content
   Accounting for density change based on humidity
DICPCG:  Solving for p_rgh, Initial residual = 0.0144261, Final residual = 0.000139849, No Iterations 9
diagonal:  Solving for rho, Initial residual = 0, Final residual = 0, No Iterations 0
time step continuity errors : sum local = 4.21985e-07, global = -7.4024e-08, cumulative = -6.94916e-06
DICPCG:  Solving for p_rgh, Initial residual = 0.000606935, Final residual = 8.17106e-09, No Iterations 144
diagonal:  Solving for rho, Initial residual = 0, Final residual = 0, No Iterations 0
time step continuity errors : sum local = 3.52868e-10, global = -1.50096e-12, cumulative = -6.94916e-06
ExecutionTime = 34.13 s  ClockTime = 34 s

Courant Number mean: 0.0418841 max: 0.474982
deltaT = 0.0769231
Time = 39.8462

diagonal:  Solving for rho, Initial residual = 0, Final residual = 0, No Iterations 0
DILUPBiCGStab:  Solving for Ux, Initial residual = 0.00205373, Final residual = 2.11207e-09, No Iterations 1
DILUPBiCGStab:  Solving for Uy, Initial residual = 0.00406219, Final residual = 2.74878e-09, No Iterations 1
DILUPBiCGStab:  Solving for h, Initial residual = 0.00193601, Final residual = 9.05386e-07, No Iterations 1
   Solve transport equation for specific humidity
DILUPBiCGStab:  Solving for thermo:specificHumidity, Initial residual = 0.00196467, Final residual = 8.97614e-07, No Iterations 1
bounding thermo:specificHumidity, min: -1.37778e-11 max: 0.0235552 average: 0.000598737
   Calculate the saturation pressure of water
   Calculate the partial pressure of water
   Calculate the relative humidity
   Calculate the water content
   Accounting for density change based on humidity
DICPCG:  Solving for p_rgh, Initial residual = 0.00977915, Final residual = 9.36221e-05, No Iterations 15
diagonal:  Solving for rho, Initial residual = 0, Final residual = 0, No Iterations 0
time step continuity errors : sum local = 2.82811e-07, global = 6.72661e-08, cumulative = -6.88189e-06
DICPCG:  Solving for p_rgh, Initial residual = 0.000609403, Final residual = 8.27976e-09, No Iterations 141
diagonal:  Solving for rho, Initial residual = 0, Final residual = 0, No Iterations 0
time step continuity errors : sum local = 3.52004e-10, global = -3.16604e-13, cumulative = -6.88189e-06
ExecutionTime = 34.18 s  ClockTime = 34 s

Courant Number mean: 0.0419063 max: 0.475022
deltaT = 0.0769231
Time = 39.9231

diagonal:  Solving for rho, Initial residual = 0, Final residual = 0, No Iterations 0
DILUPBiCGStab:  Solving for Ux, Initial residual = 0.00201679, Final residual = 2.24842e-09, No Iterations 1
DILUPBiCGStab:  Solving for Uy, Initial residual = 0.00395999, Final residual = 2.8551e-09, No Iterations 1
DILUPBiCGStab:  Solving for h, Initial residual = 0.00193354, Final residual = 9.06071e-07, No Iterations 1
   Solve transport equation for specific humidity
DILUPBiCGStab:  Solving for thermo:specificHumidity, Initial residual = 0.00196126, Final residual = 8.97179e-07, No Iterations 1
bounding thermo:specificHumidity, min: -7.17676e-06 max: 0.0236847 average: 0.000599875
   Calculate the saturation pressure of water
   Calculate the partial pressure of water
   Calculate the relative humidity
   Calculate the water content
   Accounting for density change based on humidity
DICPCG:  Solving for p_rgh, Initial residual = 0.0130176, Final residual = 0.000125511, No Iterations 10
diagonal:  Solving for rho, Initial residual = 0, Final residual = 0, No Iterations 0
time step continuity errors : sum local = 3.78317e-07, global = -5.69393e-08, cumulative = -6.93883e-06
DICPCG:  Solving for p_rgh, Initial residual = 0.000579193, Final residual = 9.43291e-09, No Iterations 144
diagonal:  Solving for rho, Initial residual = 0, Final residual = 0, No Iterations 0
time step continuity errors : sum local = 3.55058e-10, global = -2.45014e-13, cumulative = -6.93883e-06
ExecutionTime = 34.23 s  ClockTime = 34 s

Courant Number mean: 0.0419194 max: 0.475018
deltaT = 0.0769231
Time = 40

diagonal:  Solving for rho, Initial residual = 0, Final residual = 0, No Iterations 0
DILUPBiCGStab:  Solving for Ux, Initial residual = 0.00202611, Final residual = 2.06647e-09, No Iterations 1
DILUPBiCGStab:  Solving for Uy, Initial residual = 0.00401479, Final residual = 2.61125e-09, No Iterations 1
DILUPBiCGStab:  Solving for h, Initial residual = 0.00192832, Final residual = 9.06087e-07, No Iterations 1
   Solve transport equation for specific humidity
DILUPBiCGStab:  Solving for thermo:specificHumidity, Initial residual = 0.00195684, Final residual = 8.97029e-07, No Iterations 1
bounding thermo:specificHumidity, min: -1.76695e-07 max: 0.0237451 average: 0.000601048
   Calculate the saturation pressure of water
   Calculate the partial pressure of water
   Calculate the relative humidity
   Calculate the water content
   Accounting for density change based on humidity
DICPCG:  Solving for p_rgh, Initial residual = 0.0100638, Final residual = 9.65781e-05, No Iterations 106
diagonal:  Solving for rho, Initial residual = 0, Final residual = 0, No Iterations 0
time step continuity errors : sum local = 2.90055e-07, global = -1.38567e-10, cumulative = -6.93897e-06
DICPCG:  Solving for p_rgh, Initial residual = 0.000596914, Final residual = 8.05639e-09, No Iterations 144
diagonal:  Solving for rho, Initial residual = 0, Final residual = 0, No Iterations 0
time step continuity errors : sum local = 3.54664e-10, global = 2.55783e-12, cumulative = -6.93897e-06
ExecutionTime = 34.35 s  ClockTime = 34 s

End

