/*---------------------------------------------------------------------------*\
  =========                 |
  \\      /  F ield         | OpenFOAM: The Open Source CFD Toolbox
   \\    /   O peration     | Website:  https://openfoam.org
    \\  /    A nd           | Version:  dev
     \\/     M anipulation  |
\*---------------------------------------------------------------------------*/
Build  : dev-721b8071227c
Exec   : buoyantHumidityPimpleFoam
Date   : Nov 02 2018
Time   : 04:51:42
Host   : "shortyLaptop"
PID    : 1925
I/O    : uncollated
Case   : /home/shorty/OpenFOAM/OpenFOAM-dev/src/thermophysicalModels/basic/humidityRhoThermo/tutorials/withHumidityFine
nProcs : 1
sigFpe : Enabling floating point exception trapping (FOAM_SIGFPE).
fileModificationChecking : Monitoring run-time modified files using timeStampMaster (fileModificationSkew 10)
allowSystemOperations : Allowing user-supplied system call operations

// * * * * * * * * * * * * * * * * * * * * * * * * * * * * * * * * * * * * * //
Create time

Create mesh for time = 10


PIMPLE: No convergence criteria found


PIMPLE: Operating solver in PISO mode

Reading thermophysical properties

Selecting thermodynamics package 
{
    type            heHumidityRhoThermo;
    mixture         pureMixture;
    transport       const;
    thermo          hConst;
    equationOfState perfectGas;
    specie          specie;
    energy          sensibleEnthalpy;
}

Reading field U

Reading/calculating face flux field phi

Creating turbulence model

Selecting turbulence model type laminar
Selecting laminar stress model Stokes

Reading g

Reading hRef
Calculating field g.h

Reading field p_rgh

Creating field dpdt

Creating field kinetic energy K

No MRF models present

Radiation model not active: radiationProperties not found
Selecting radiationModel none
No finite volume options present
Courant Number mean: 0.0334661 max: 0.491212

Starting time loop

Courant Number mean: 0.0334661 max: 0.491212
deltaT = 0.0285714
Time = 10.0286

diagonal:  Solving for rho, Initial residual = 0, Final residual = 0, No Iterations 0
DILUPBiCGStab:  Solving for Ux, Initial residual = 0.00443183, Final residual = 1.42622e-07, No Iterations 1
DILUPBiCGStab:  Solving for Uy, Initial residual = 0.881921, Final residual = 4.00891e-07, No Iterations 1
DILUPBiCGStab:  Solving for h, Initial residual = 0.00175704, Final residual = 1.42047e-09, No Iterations 1
   Solve transport equation for specific humidity
DILUPBiCGStab:  Solving for thermo:specificHumidity, Initial residual = 0.00207815, Final residual = 1.88131e-09, No Iterations 1
bounding thermo:specificHumidity, min: -7.90142e-09 max: 0.0196258 average: 0.000147521
   Calculate the partial pressure of water
   Calculate the saturation pressure of water
   Calculate the relative humidity
   Calculate the water density
   Accounting for density change based on humidity
FDICPCG:  Solving for p_rgh, Initial residual = 0.995569, Final residual = 0.00979525, No Iterations 238
diagonal:  Solving for rho, Initial residual = 0, Final residual = 0, No Iterations 0
time step continuity errors : sum local = 0.000929946, global = -5.84457e-06, cumulative = -5.84457e-06
FDICPCG:  Solving for p_rgh, Initial residual = 0.141427, Final residual = 9.15887e-09, No Iterations 420
diagonal:  Solving for rho, Initial residual = 0, Final residual = 0, No Iterations 0
time step continuity errors : sum local = 9.37797e-09, global = -9.36069e-09, cumulative = -5.85393e-06
ExecutionTime = 1.75 s  ClockTime = 2 s

Courant Number mean: 0.0250877 max: 0.536714
deltaT = 0.0262548
Time = 10.0548

diagonal:  Solving for rho, Initial residual = 0, Final residual = 0, No Iterations 0
DILUPBiCGStab:  Solving for Ux, Initial residual = 0.736931, Final residual = 5.81198e-07, No Iterations 1
DILUPBiCGStab:  Solving for Uy, Initial residual = 0.344414, Final residual = 1.71597e-09, No Iterations 2
DILUPBiCGStab:  Solving for h, Initial residual = 0.00366295, Final residual = 1.7265e-08, No Iterations 1
   Solve transport equation for specific humidity
DILUPBiCGStab:  Solving for thermo:specificHumidity, Initial residual = 0.00338679, Final residual = 1.74701e-08, No Iterations 1
bounding thermo:specificHumidity, min: -0.000334522 max: 0.0197173 average: 0.000146099
   Calculate the partial pressure of water
   Calculate the saturation pressure of water
   Calculate the relative humidity
   Calculate the water density
   Accounting for density change based on humidity
FDICPCG:  Solving for p_rgh, Initial residual = 0.0498139, Final residual = 0.000478107, No Iterations 317
diagonal:  Solving for rho, Initial residual = 0, Final residual = 0, No Iterations 0
time step continuity errors : sum local = 4.20564e-06, global = 1.13351e-08, cumulative = -5.84259e-06
FDICPCG:  Solving for p_rgh, Initial residual = 0.102509, Final residual = 9.25465e-09, No Iterations 425
diagonal:  Solving for rho, Initial residual = 0, Final residual = 0, No Iterations 0
time step continuity errors : sum local = 9.17224e-09, global = 9.15738e-09, cumulative = -5.83344e-06
ExecutionTime = 3 s  ClockTime = 3 s

Courant Number mean: 0.0129273 max: 0.58397
deltaT = 0.0219808
Time = 10.0768

diagonal:  Solving for rho, Initial residual = 0, Final residual = 0, No Iterations 0
DILUPBiCGStab:  Solving for Ux, Initial residual = 0.443183, Final residual = 1.28463e-07, No Iterations 1
DILUPBiCGStab:  Solving for Uy, Initial residual = 0.494009, Final residual = 2.61759e-07, No Iterations 1
DILUPBiCGStab:  Solving for h, Initial residual = 0.0306546, Final residual = 1.31571e-09, No Iterations 1
   Solve transport equation for specific humidity
DILUPBiCGStab:  Solving for thermo:specificHumidity, Initial residual = 0.00151239, Final residual = 6.46018e-07, No Iterations 1
bounding thermo:specificHumidity, min: -9.08758e-10 max: 0.0197033 average: 0.000146472
   Calculate the partial pressure of water
   Calculate the saturation pressure of water
   Calculate the relative humidity
   Calculate the water density
   Accounting for density change based on humidity
FDICPCG:  Solving for p_rgh, Initial residual = 0.298496, Final residual = 0.0029573, No Iterations 302
diagonal:  Solving for rho, Initial residual = 0, Final residual = 0, No Iterations 0
time step continuity errors : sum local = 2.74196e-06, global = -1.97653e-08, cumulative = -5.8532e-06
FDICPCG:  Solving for p_rgh, Initial residual = 0.00584031, Final residual = 9.36854e-09, No Iterations 400
diagonal:  Solving for rho, Initial residual = 0, Final residual = 0, No Iterations 0
time step continuity errors : sum local = 6.32793e-09, global = 6.32152e-09, cumulative = -5.84688e-06
ExecutionTime = 4.21 s  ClockTime = 7 s

Courant Number mean: 0.0157432 max: 0.196019
deltaT = 0.0263769
Time = 10.1032

diagonal:  Solving for rho, Initial residual = 0, Final residual = 0, No Iterations 0
DILUPBiCGStab:  Solving for Ux, Initial residual = 0.647765, Final residual = 2.46398e-07, No Iterations 1
DILUPBiCGStab:  Solving for Uy, Initial residual = 0.324302, Final residual = 8.37492e-08, No Iterations 1
DILUPBiCGStab:  Solving for h, Initial residual = 0.0314955, Final residual = 6.18982e-09, No Iterations 1
   Solve transport equation for specific humidity
DILUPBiCGStab:  Solving for thermo:specificHumidity, Initial residual = 0.00193138, Final residual = 1.31686e-09, No Iterations 1
bounding thermo:specificHumidity, min: -2.13815e-06 max: 0.0196796 average: 0.000146863
   Calculate the partial pressure of water
   Calculate the saturation pressure of water
   Calculate the relative humidity
   Calculate the water density
   Accounting for density change based on humidity
FDICPCG:  Solving for p_rgh, Initial residual = 0.0168523, Final residual = 0.000158868, No Iterations 282
diagonal:  Solving for rho, Initial residual = 0, Final residual = 0, No Iterations 0
time step continuity errors : sum local = 1.02932e-06, global = -3.96471e-09, cumulative = -5.85084e-06
FDICPCG:  Solving for p_rgh, Initial residual = 0.000789429, Final residual = 9.89057e-09, No Iterations 387
diagonal:  Solving for rho, Initial residual = 0, Final residual = 0, No Iterations 0
time step continuity errors : sum local = 1.00657e-09, global = 5.0891e-10, cumulative = -5.85034e-06
ExecutionTime = 5.4 s  ClockTime = 9 s

Courant Number mean: 0.0365257 max: 0.71957
deltaT = 0.0183024
Time = 10.1215

diagonal:  Solving for rho, Initial residual = 0, Final residual = 0, No Iterations 0
DILUPBiCGStab:  Solving for Ux, Initial residual = 0.4456, Final residual = 3.10032e-09, No Iterations 2
DILUPBiCGStab:  Solving for Uy, Initial residual = 0.137224, Final residual = 3.29521e-09, No Iterations 2
DILUPBiCGStab:  Solving for h, Initial residual = 0.00335822, Final residual = 9.54674e-07, No Iterations 1
   Solve transport equation for specific humidity
DILUPBiCGStab:  Solving for thermo:specificHumidity, Initial residual = 0.00134543, Final residual = 4.39801e-07, No Iterations 1
bounding thermo:specificHumidity, min: -2.00858e-06 max: 0.0196614 average: 0.000147135
   Calculate the partial pressure of water
   Calculate the saturation pressure of water
   Calculate the relative humidity
   Calculate the water density
   Accounting for density change based on humidity
FDICPCG:  Solving for p_rgh, Initial residual = 0.0166594, Final residual = 0.00016092, No Iterations 270
diagonal:  Solving for rho, Initial residual = 0, Final residual = 0, No Iterations 0
time step continuity errors : sum local = 4.92428e-07, global = 8.9839e-10, cumulative = -5.84944e-06
FDICPCG:  Solving for p_rgh, Initial residual = 0.00152026, Final residual = 9.63054e-09, No Iterations 391
diagonal:  Solving for rho, Initial residual = 0, Final residual = 0, No Iterations 0
time step continuity errors : sum local = 2.95681e-09, global = -2.95004e-09, cumulative = -5.85239e-06
ExecutionTime = 6.57 s  ClockTime = 10 s

Courant Number mean: 0.0299569 max: 0.649655
deltaT = 0.0139447
Time = 10.1354

diagonal:  Solving for rho, Initial residual = 0, Final residual = 0, No Iterations 0
DILUPBiCGStab:  Solving for Ux, Initial residual = 0.186682, Final residual = 1.70395e-09, No Iterations 2
DILUPBiCGStab:  Solving for Uy, Initial residual = 0.0510596, Final residual = 2.2945e-09, No Iterations 2
DILUPBiCGStab:  Solving for h, Initial residual = 0.00909746, Final residual = 2.74225e-10, No Iterations 1
   Solve transport equation for specific humidity
DILUPBiCGStab:  Solving for thermo:specificHumidity, Initial residual = 0.00103058, Final residual = 1.97498e-07, No Iterations 1
bounding thermo:specificHumidity, min: -4.18777e-06 max: 0.0196464 average: 0.000147345
   Calculate the partial pressure of water
   Calculate the saturation pressure of water
   Calculate the relative humidity
   Calculate the water density
   Accounting for density change based on humidity
FDICPCG:  Solving for p_rgh, Initial residual = 0.0368647, Final residual = 0.000356896, No Iterations 249
diagonal:  Solving for rho, Initial residual = 0, Final residual = 0, No Iterations 0
time step continuity errors : sum local = 4.05598e-07, global = 1.31918e-09, cumulative = -5.85107e-06
FDICPCG:  Solving for p_rgh, Initial residual = 0.00460313, Final residual = 9.26189e-09, No Iterations 396
diagonal:  Solving for rho, Initial residual = 0, Final residual = 0, No Iterations 0
time step continuity errors : sum local = 3.11592e-09, global = -3.11408e-09, cumulative = -5.85418e-06
ExecutionTime = 7.72 s  ClockTime = 11 s

Courant Number mean: 0.0232668 max: 0.473844
deltaT = 0.0146537
Time = 10.1501

diagonal:  Solving for rho, Initial residual = 0, Final residual = 0, No Iterations 0
DILUPBiCGStab:  Solving for Ux, Initial residual = 0.0362017, Final residual = 3.44431e-07, No Iterations 1
DILUPBiCGStab:  Solving for Uy, Initial residual = 0.0083609, Final residual = 2.34586e-07, No Iterations 1
DILUPBiCGStab:  Solving for h, Initial residual = 0.0129156, Final residual = 5.32138e-10, No Iterations 1
   Solve transport equation for specific humidity
DILUPBiCGStab:  Solving for thermo:specificHumidity, Initial residual = 0.00108201, Final residual = 2.29527e-07, No Iterations 1
bounding thermo:specificHumidity, min: -2.94344e-12 max: 0.0196291 average: 0.000147606
   Calculate the partial pressure of water
   Calculate the saturation pressure of water
   Calculate the relative humidity
   Calculate the water density
   Accounting for density change based on humidity
FDICPCG:  Solving for p_rgh, Initial residual = 0.0752932, Final residual = 0.000735925, No Iterations 233
diagonal:  Solving for rho, Initial residual = 0, Final residual = 0, No Iterations 0
time step continuity errors : sum local = 3.58581e-07, global = -4.42175e-10, cumulative = -5.85462e-06
FDICPCG:  Solving for p_rgh, Initial residual = 0.00230299, Final residual = 9.10057e-09, No Iterations 392
diagonal:  Solving for rho, Initial residual = 0, Final residual = 0, No Iterations 0
time step continuity errors : sum local = 2.8419e-09, global = -2.83926e-09, cumulative = -5.85746e-06
ExecutionTime = 8.83 s  ClockTime = 12 s

Courant Number mean: 0.0225957 max: 0.39145
deltaT = 0.0163445
Time = 10.1664

diagonal:  Solving for rho, Initial residual = 0, Final residual = 0, No Iterations 0
DILUPBiCGStab:  Solving for Ux, Initial residual = 0.176801, Final residual = 2.22636e-09, No Iterations 2
DILUPBiCGStab:  Solving for Uy, Initial residual = 0.0419588, Final residual = 8.70591e-07, No Iterations 1
DILUPBiCGStab:  Solving for h, Initial residual = 0.0125803, Final residual = 6.68875e-10, No Iterations 1
   Solve transport equation for specific humidity
DILUPBiCGStab:  Solving for thermo:specificHumidity, Initial residual = 0.00120209, Final residual = 3.16588e-07, No Iterations 1
bounding thermo:specificHumidity, min: -5.89068e-17 max: 0.0196078 average: 0.000147849
   Calculate the partial pressure of water
   Calculate the saturation pressure of water
   Calculate the relative humidity
   Calculate the water density
   Accounting for density change based on humidity
FDICPCG:  Solving for p_rgh, Initial residual = 0.02446, Final residual = 0.000231238, No Iterations 256
diagonal:  Solving for rho, Initial residual = 0, Final residual = 0, No Iterations 0
time step continuity errors : sum local = 2.39607e-07, global = 7.66911e-10, cumulative = -5.8567e-06
FDICPCG:  Solving for p_rgh, Initial residual = 0.000961908, Final residual = 9.75989e-09, No Iterations 385
diagonal:  Solving for rho, Initial residual = 0, Final residual = 0, No Iterations 0
time step continuity errors : sum local = 1.60746e-09, global = -1.59962e-09, cumulative = -5.8583e-06
ExecutionTime = 9.95 s  ClockTime = 13 s

Courant Number mean: 0.0211662 max: 0.328281
deltaT = 0.0185238
Time = 10.185

diagonal:  Solving for rho, Initial residual = 0, Final residual = 0, No Iterations 0
DILUPBiCGStab:  Solving for Ux, Initial residual = 0.367821, Final residual = 2.37436e-09, No Iterations 2
DILUPBiCGStab:  Solving for Uy, Initial residual = 0.0982116, Final residual = 1.98725e-09, No Iterations 2
DILUPBiCGStab:  Solving for h, Initial residual = 0.00772894, Final residual = 6.10233e-10, No Iterations 1
   Solve transport equation for specific humidity
DILUPBiCGStab:  Solving for thermo:specificHumidity, Initial residual = 0.0013516, Final residual = 4.52077e-07, No Iterations 1
bounding thermo:specificHumidity, min: -6.94433e-11 max: 0.0195816 average: 0.000148123
   Calculate the partial pressure of water
   Calculate the saturation pressure of water
   Calculate the relative humidity
   Calculate the water density
   Accounting for density change based on humidity
FDICPCG:  Solving for p_rgh, Initial residual = 0.00750683, Final residual = 7.45613e-05, No Iterations 270
diagonal:  Solving for rho, Initial residual = 0, Final residual = 0, No Iterations 0
time step continuity errors : sum local = 1.4519e-07, global = 4.94371e-10, cumulative = -5.8578e-06
FDICPCG:  Solving for p_rgh, Initial residual = 0.000354384, Final residual = 9.229e-09, No Iterations 370
diagonal:  Solving for rho, Initial residual = 0, Final residual = 0, No Iterations 0
time step continuity errors : sum local = 3.96717e-10, global = 3.43181e-10, cumulative = -5.85746e-06
ExecutionTime = 11.07 s  ClockTime = 14 s

Courant Number mean: 0.0192551 max: 0.276741
deltaT = 0.0214486
Time = 10.2064

diagonal:  Solving for rho, Initial residual = 0, Final residual = 0, No Iterations 0
DILUPBiCGStab:  Solving for Ux, Initial residual = 0.405004, Final residual = 1.34326e-09, No Iterations 2
DILUPBiCGStab:  Solving for Uy, Initial residual = 0.134849, Final residual = 9.48996e-07, No Iterations 1
DILUPBiCGStab:  Solving for h, Initial residual = 0.00274207, Final residual = 4.78457e-10, No Iterations 1
   Solve transport equation for specific humidity
DILUPBiCGStab:  Solving for thermo:specificHumidity, Initial residual = 0.00155288, Final residual = 6.86464e-07, No Iterations 1
bounding thermo:specificHumidity, min: -6.16155e-07 max: 0.0195482 average: 0.000148436
   Calculate the partial pressure of water
   Calculate the saturation pressure of water
   Calculate the relative humidity
   Calculate the water density
   Accounting for density change based on humidity
FDICPCG:  Solving for p_rgh, Initial residual = 0.0172022, Final residual = 0.000163957, No Iterations 259
diagonal:  Solving for rho, Initial residual = 0, Final residual = 0, No Iterations 0
time step continuity errors : sum local = 4.03478e-07, global = -3.30753e-10, cumulative = -5.85779e-06
FDICPCG:  Solving for p_rgh, Initial residual = 0.00190705, Final residual = 9.0081e-09, No Iterations 397
diagonal:  Solving for rho, Initial residual = 0, Final residual = 0, No Iterations 0
time step continuity errors : sum local = 2.03931e-09, global = 2.02131e-09, cumulative = -5.85577e-06
ExecutionTime = 12.25 s  ClockTime = 15 s

Courant Number mean: 0.0196907 max: 0.28666
deltaT = 0.0247999
Time = 10.2312

diagonal:  Solving for rho, Initial residual = 0, Final residual = 0, No Iterations 0
DILUPBiCGStab:  Solving for Ux, Initial residual = 0.224632, Final residual = 8.18262e-10, No Iterations 2
DILUPBiCGStab:  Solving for Uy, Initial residual = 0.072946, Final residual = 4.18933e-07, No Iterations 1
DILUPBiCGStab:  Solving for h, Initial residual = 0.0101722, Final residual = 2.26446e-09, No Iterations 1
   Solve transport equation for specific humidity
DILUPBiCGStab:  Solving for thermo:specificHumidity, Initial residual = 0.0017889, Final residual = 9.13638e-10, No Iterations 1
bounding thermo:specificHumidity, min: -1.82792e-05 max: 0.0195429 average: 0.0001488
   Calculate the partial pressure of water
   Calculate the saturation pressure of water
   Calculate the relative humidity
   Calculate the water density
   Accounting for density change based on humidity
FDICPCG:  Solving for p_rgh, Initial residual = 0.0332636, Final residual = 0.000304068, No Iterations 236
diagonal:  Solving for rho, Initial residual = 0, Final residual = 0, No Iterations 0
time step continuity errors : sum local = 5.62517e-07, global = 1.8762e-10, cumulative = -5.85558e-06
FDICPCG:  Solving for p_rgh, Initial residual = 0.00268696, Final residual = 9.63448e-09, No Iterations 403
diagonal:  Solving for rho, Initial residual = 0, Final residual = 0, No Iterations 0
time step continuity errors : sum local = 2.24013e-09, global = 2.20839e-09, cumulative = -5.85337e-06
ExecutionTime = 13.37 s  ClockTime = 17 s

Courant Number mean: 0.0246906 max: 0.352338
deltaT = 0.0274571
Time = 10.2587

diagonal:  Solving for rho, Initial residual = 0, Final residual = 0, No Iterations 0
DILUPBiCGStab:  Solving for Ux, Initial residual = 0.152705, Final residual = 1.45982e-09, No Iterations 2
DILUPBiCGStab:  Solving for Uy, Initial residual = 0.0387533, Final residual = 4.36326e-07, No Iterations 1
DILUPBiCGStab:  Solving for h, Initial residual = 0.010686, Final residual = 3.63433e-09, No Iterations 1
   Solve transport equation for specific humidity
DILUPBiCGStab:  Solving for thermo:specificHumidity, Initial residual = 0.00198267, Final residual = 1.53347e-09, No Iterations 1
bounding thermo:specificHumidity, min: -3.83562e-09 max: 0.0195573 average: 0.000149238
   Calculate the partial pressure of water
   Calculate the saturation pressure of water
   Calculate the relative humidity
   Calculate the water density
   Accounting for density change based on humidity
FDICPCG:  Solving for p_rgh, Initial residual = 0.0237026, Final residual = 0.000227757, No Iterations 253
diagonal:  Solving for rho, Initial residual = 0, Final residual = 0, No Iterations 0
time step continuity errors : sum local = 3.94071e-07, global = -2.45472e-10, cumulative = -5.85362e-06
FDICPCG:  Solving for p_rgh, Initial residual = 0.00121625, Final residual = 9.87055e-09, No Iterations 394
diagonal:  Solving for rho, Initial residual = 0, Final residual = 0, No Iterations 0
time step continuity errors : sum local = 9.04987e-10, global = 7.8484e-10, cumulative = -5.85283e-06
ExecutionTime = 14.54 s  ClockTime = 18 s

Courant Number mean: 0.0319984 max: 0.451467
deltaT = 0.0296537
Time = 10.2883

diagonal:  Solving for rho, Initial residual = 0, Final residual = 0, No Iterations 0
DILUPBiCGStab:  Solving for Ux, Initial residual = 0.273315, Final residual = 1.00464e-08, No Iterations 2
DILUPBiCGStab:  Solving for Uy, Initial residual = 0.063478, Final residual = 7.18872e-09, No Iterations 2
DILUPBiCGStab:  Solving for h, Initial residual = 0.00483315, Final residual = 2.8696e-09, No Iterations 1
   Solve transport equation for specific humidity
DILUPBiCGStab:  Solving for thermo:specificHumidity, Initial residual = 0.0021507, Final residual = 2.31021e-09, No Iterations 1
bounding thermo:specificHumidity, min: -1.41458e-06 max: 0.0195629 average: 0.000149673
   Calculate the partial pressure of water
   Calculate the saturation pressure of water
   Calculate the relative humidity
   Calculate the water density
   Accounting for density change based on humidity
FDICPCG:  Solving for p_rgh, Initial residual = 0.018278, Final residual = 0.000181442, No Iterations 271
diagonal:  Solving for rho, Initial residual = 0, Final residual = 0, No Iterations 0
time step continuity errors : sum local = 4.79586e-07, global = -4.37761e-10, cumulative = -5.85327e-06
FDICPCG:  Solving for p_rgh, Initial residual = 0.00166874, Final residual = 9.57752e-09, No Iterations 398
diagonal:  Solving for rho, Initial residual = 0, Final residual = 0, No Iterations 0
time step continuity errors : sum local = 8.95833e-10, global = -7.22933e-10, cumulative = -5.85399e-06
ExecutionTime = 15.72 s  ClockTime = 19 s

Courant Number mean: 0.0374889 max: 0.5407
deltaT = 0.0273726
Time = 10.3157

diagonal:  Solving for rho, Initial residual = 0, Final residual = 0, No Iterations 0
DILUPBiCGStab:  Solving for Ux, Initial residual = 0.14129, Final residual = 6.17272e-09, No Iterations 2
DILUPBiCGStab:  Solving for Uy, Initial residual = 0.0303505, Final residual = 3.98737e-09, No Iterations 2
DILUPBiCGStab:  Solving for h, Initial residual = 0.00396551, Final residual = 1.81415e-09, No Iterations 1
   Solve transport equation for specific humidity
DILUPBiCGStab:  Solving for thermo:specificHumidity, Initial residual = 0.00198866, Final residual = 1.56966e-09, No Iterations 1
bounding thermo:specificHumidity, min: -9.18102e-06 max: 0.01956 average: 0.000150077
   Calculate the partial pressure of water
   Calculate the saturation pressure of water
   Calculate the relative humidity
   Calculate the water density
   Accounting for density change based on humidity
FDICPCG:  Solving for p_rgh, Initial residual = 0.025723, Final residual = 0.000240881, No Iterations 263
diagonal:  Solving for rho, Initial residual = 0, Final residual = 0, No Iterations 0
time step continuity errors : sum local = 4.12228e-07, global = 3.42496e-10, cumulative = -5.85365e-06
FDICPCG:  Solving for p_rgh, Initial residual = 0.00293081, Final residual = 9.40022e-09, No Iterations 406
diagonal:  Solving for rho, Initial residual = 0, Final residual = 0, No Iterations 0
time step continuity errors : sum local = 1.06707e-09, global = -9.67789e-10, cumulative = -5.85462e-06
ExecutionTime = 16.94 s  ClockTime = 20 s

Courant Number mean: 0.0342765 max: 0.504738
deltaT = 0.0263198
Time = 10.342

diagonal:  Solving for rho, Initial residual = 0, Final residual = 0, No Iterations 0
DILUPBiCGStab:  Solving for Ux, Initial residual = 0.0218529, Final residual = 7.03368e-07, No Iterations 1
DILUPBiCGStab:  Solving for Uy, Initial residual = 0.00540689, Final residual = 8.18252e-08, No Iterations 1
DILUPBiCGStab:  Solving for h, Initial residual = 0.00481869, Final residual = 1.7287e-09, No Iterations 1
   Solve transport equation for specific humidity
DILUPBiCGStab:  Solving for thermo:specificHumidity, Initial residual = 0.00190661, Final residual = 1.29206e-09, No Iterations 1
bounding thermo:specificHumidity, min: -5.66857e-08 max: 0.01955 average: 0.00015047
   Calculate the partial pressure of water
   Calculate the saturation pressure of water
   Calculate the relative humidity
   Calculate the water density
   Accounting for density change based on humidity
FDICPCG:  Solving for p_rgh, Initial residual = 0.0305875, Final residual = 0.000276616, No Iterations 211
diagonal:  Solving for rho, Initial residual = 0, Final residual = 0, No Iterations 0
time step continuity errors : sum local = 2.81978e-07, global = -2.25722e-09, cumulative = -5.85688e-06
FDICPCG:  Solving for p_rgh, Initial residual = 0.00143864, Final residual = 9.48064e-09, No Iterations 395
diagonal:  Solving for rho, Initial residual = 0, Final residual = 0, No Iterations 0
time step continuity errors : sum local = 6.20753e-10, global = -4.59713e-10, cumulative = -5.85734e-06
ExecutionTime = 18.08 s  ClockTime = 21 s

Courant Number mean: 0.0314257 max: 0.467153
deltaT = 0.0274165
Time = 10.3694

diagonal:  Solving for rho, Initial residual = 0, Final residual = 0, No Iterations 0
DILUPBiCGStab:  Solving for Ux, Initial residual = 0.108404, Final residual = 3.5259e-09, No Iterations 2
DILUPBiCGStab:  Solving for Uy, Initial residual = 0.0229638, Final residual = 8.35571e-07, No Iterations 1
DILUPBiCGStab:  Solving for h, Initial residual = 0.00329509, Final residual = 1.61538e-09, No Iterations 1
   Solve transport equation for specific humidity
DILUPBiCGStab:  Solving for thermo:specificHumidity, Initial residual = 0.00198137, Final residual = 1.58014e-09, No Iterations 1
bounding thermo:specificHumidity, min: -2.39458e-06 max: 0.0195321 average: 0.000150874
   Calculate the partial pressure of water
   Calculate the saturation pressure of water
   Calculate the relative humidity
   Calculate the water density
   Accounting for density change based on humidity
FDICPCG:  Solving for p_rgh, Initial residual = 0.0270547, Final residual = 0.000258148, No Iterations 253
diagonal:  Solving for rho, Initial residual = 0, Final residual = 0, No Iterations 0
time step continuity errors : sum local = 3.75841e-07, global = 3.52163e-10, cumulative = -5.85698e-06
FDICPCG:  Solving for p_rgh, Initial residual = 0.00109868, Final residual = 8.9278e-09, No Iterations 380
diagonal:  Solving for rho, Initial residual = 0, Final residual = 0, No Iterations 0
time step continuity errors : sum local = 4.71667e-10, global = 1.20485e-10, cumulative = -5.85686e-06
ExecutionTime = 19.23 s  ClockTime = 22 s

Courant Number mean: 0.0314361 max: 0.46758
deltaT = 0.0286627
Time = 10.3981

diagonal:  Solving for rho, Initial residual = 0, Final residual = 0, No Iterations 0
DILUPBiCGStab:  Solving for Ux, Initial residual = 0.0920344, Final residual = 3.30569e-09, No Iterations 2
DILUPBiCGStab:  Solving for Uy, Initial residual = 0.0201476, Final residual = 6.54075e-07, No Iterations 1
DILUPBiCGStab:  Solving for h, Initial residual = 0.00213776, Final residual = 1.58142e-09, No Iterations 1
   Solve transport equation for specific humidity
DILUPBiCGStab:  Solving for thermo:specificHumidity, Initial residual = 0.00206052, Final residual = 1.96047e-09, No Iterations 1
bounding thermo:specificHumidity, min: -6.82034e-05 max: 0.0195055 average: 0.000151337
   Calculate the partial pressure of water
   Calculate the saturation pressure of water
   Calculate the relative humidity
   Calculate the water density
   Accounting for density change based on humidity
FDICPCG:  Solving for p_rgh, Initial residual = 0.0351676, Final residual = 0.000328158, No Iterations 253
diagonal:  Solving for rho, Initial residual = 0, Final residual = 0, No Iterations 0
time step continuity errors : sum local = 4.892e-07, global = -4.63788e-10, cumulative = -5.85733e-06
FDICPCG:  Solving for p_rgh, Initial residual = 0.00213092, Final residual = 9.50575e-09, No Iterations 396
diagonal:  Solving for rho, Initial residual = 0, Final residual = 0, No Iterations 0
time step continuity errors : sum local = 6.31644e-10, global = 3.78027e-10, cumulative = -5.85695e-06
ExecutionTime = 20.37 s  ClockTime = 24 s

Courant Number mean: 0.0326639 max: 0.484204
deltaT = 0.0286627
Time = 10.4267

diagonal:  Solving for rho, Initial residual = 0, Final residual = 0, No Iterations 0
DILUPBiCGStab:  Solving for Ux, Initial residual = 0.0149807, Final residual = 1.67553e-07, No Iterations 1
DILUPBiCGStab:  Solving for Uy, Initial residual = 0.00457686, Final residual = 5.24332e-08, No Iterations 1
DILUPBiCGStab:  Solving for h, Initial residual = 0.00301792, Final residual = 1.85439e-09, No Iterations 1
   Solve transport equation for specific humidity
DILUPBiCGStab:  Solving for thermo:specificHumidity, Initial residual = 0.00205487, Final residual = 1.94994e-09, No Iterations 1
bounding thermo:specificHumidity, min: -3.27429e-08 max: 0.0194717 average: 0.000151817
   Calculate the partial pressure of water
   Calculate the saturation pressure of water
   Calculate the relative humidity
   Calculate the water density
   Accounting for density change based on humidity
FDICPCG:  Solving for p_rgh, Initial residual = 0.029119, Final residual = 0.000275854, No Iterations 255
diagonal:  Solving for rho, Initial residual = 0, Final residual = 0, No Iterations 0
time step continuity errors : sum local = 3.24914e-07, global = -4.25617e-10, cumulative = -5.85737e-06
FDICPCG:  Solving for p_rgh, Initial residual = 0.00154851, Final residual = 9.28638e-09, No Iterations 391
diagonal:  Solving for rho, Initial residual = 0, Final residual = 0, No Iterations 0
time step continuity errors : sum local = 5.6486e-10, global = 2.47884e-10, cumulative = -5.85713e-06
ExecutionTime = 21.51 s  ClockTime = 25 s

Courant Number mean: 0.0332639 max: 0.491921
deltaT = 0.0286627
Time = 10.4554

diagonal:  Solving for rho, Initial residual = 0, Final residual = 0, No Iterations 0
DILUPBiCGStab:  Solving for Ux, Initial residual = 0.0387969, Final residual = 1.45121e-09, No Iterations 2
DILUPBiCGStab:  Solving for Uy, Initial residual = 0.00900396, Final residual = 2.28858e-07, No Iterations 1
DILUPBiCGStab:  Solving for h, Initial residual = 0.00255256, Final residual = 1.71413e-09, No Iterations 1
   Solve transport equation for specific humidity
DILUPBiCGStab:  Solving for thermo:specificHumidity, Initial residual = 0.00205324, Final residual = 1.94248e-09, No Iterations 1
bounding thermo:specificHumidity, min: -2.14222e-06 max: 0.0194311 average: 0.000152238
   Calculate the partial pressure of water
   Calculate the saturation pressure of water
   Calculate the relative humidity
   Calculate the water density
   Accounting for density change based on humidity
FDICPCG:  Solving for p_rgh, Initial residual = 0.0227102, Final residual = 0.000222436, No Iterations 119
diagonal:  Solving for rho, Initial residual = 0, Final residual = 0, No Iterations 0
time step continuity errors : sum local = 2.98406e-07, global = 1.37447e-08, cumulative = -5.84338e-06
FDICPCG:  Solving for p_rgh, Initial residual = 0.00105434, Final residual = 9.49942e-09, No Iterations 351
diagonal:  Solving for rho, Initial residual = 0, Final residual = 0, No Iterations 0
time step continuity errors : sum local = 4.82259e-10, global = -4.83506e-13, cumulative = -5.84338e-06
ExecutionTime = 22.37 s  ClockTime = 26 s

Courant Number mean: 0.0338574 max: 0.500781
deltaT = 0.0272295
Time = 10.4826

diagonal:  Solving for rho, Initial residual = 0, Final residual = 0, No Iterations 0
DILUPBiCGStab:  Solving for Ux, Initial residual = 0.0357811, Final residual = 9.01816e-07, No Iterations 1
DILUPBiCGStab:  Solving for Uy, Initial residual = 0.00831142, Final residual = 2.21065e-07, No Iterations 1
DILUPBiCGStab:  Solving for h, Initial residual = 0.00160542, Final residual = 1.13304e-09, No Iterations 1
   Solve transport equation for specific humidity
DILUPBiCGStab:  Solving for thermo:specificHumidity, Initial residual = 0.0019517, Final residual = 1.49231e-09, No Iterations 1
bounding thermo:specificHumidity, min: -2.08206e-08 max: 0.0193867 average: 0.000152639
   Calculate the partial pressure of water
   Calculate the saturation pressure of water
   Calculate the relative humidity
   Calculate the water density
   Accounting for density change based on humidity
FDICPCG:  Solving for p_rgh, Initial residual = 0.0228579, Final residual = 0.000225615, No Iterations 242
diagonal:  Solving for rho, Initial residual = 0, Final residual = 0, No Iterations 0
time step continuity errors : sum local = 2.7496e-07, global = -1.53941e-10, cumulative = -5.84354e-06
FDICPCG:  Solving for p_rgh, Initial residual = 0.00123666, Final residual = 9.38611e-09, No Iterations 383
diagonal:  Solving for rho, Initial residual = 0, Final residual = 0, No Iterations 0
time step continuity errors : sum local = 4.72055e-10, global = -1.24993e-10, cumulative = -5.84366e-06
ExecutionTime = 23.51 s  ClockTime = 27 s

Courant Number mean: 0.032334 max: 0.478576
deltaT = 0.0272295
Time = 10.5099

diagonal:  Solving for rho, Initial residual = 0, Final residual = 0, No Iterations 0
DILUPBiCGStab:  Solving for Ux, Initial residual = 0.0119061, Final residual = 2.09603e-07, No Iterations 1
DILUPBiCGStab:  Solving for Uy, Initial residual = 0.0036703, Final residual = 3.82265e-08, No Iterations 1
DILUPBiCGStab:  Solving for h, Initial residual = 0.00201754, Final residual = 1.22699e-09, No Iterations 1
   Solve transport equation for specific humidity
DILUPBiCGStab:  Solving for thermo:specificHumidity, Initial residual = 0.00195127, Final residual = 1.47632e-09, No Iterations 1
bounding thermo:specificHumidity, min: -7.09499e-10 max: 0.0194113 average: 0.00015304
   Calculate the partial pressure of water
   Calculate the saturation pressure of water
   Calculate the relative humidity
   Calculate the water density
   Accounting for density change based on humidity
FDICPCG:  Solving for p_rgh, Initial residual = 0.0245453, Final residual = 0.000238935, No Iterations 216
diagonal:  Solving for rho, Initial residual = 0, Final residual = 0, No Iterations 0
time step continuity errors : sum local = 2.6875e-07, global = -9.98087e-10, cumulative = -5.84466e-06
FDICPCG:  Solving for p_rgh, Initial residual = 0.00127239, Final residual = 9.89929e-09, No Iterations 382
diagonal:  Solving for rho, Initial residual = 0, Final residual = 0, No Iterations 0
time step continuity errors : sum local = 4.67265e-10, global = -1.08924e-10, cumulative = -5.84477e-06
ExecutionTime = 24.59 s  ClockTime = 28 s

Courant Number mean: 0.0321904 max: 0.476208
deltaT = 0.0272295
Time = 10.5371

diagonal:  Solving for rho, Initial residual = 0, Final residual = 0, No Iterations 0
DILUPBiCGStab:  Solving for Ux, Initial residual = 0.0112389, Final residual = 2.04896e-07, No Iterations 1
DILUPBiCGStab:  Solving for Uy, Initial residual = 0.00345805, Final residual = 4.83956e-08, No Iterations 1
DILUPBiCGStab:  Solving for h, Initial residual = 0.00195903, Final residual = 1.20726e-09, No Iterations 1
   Solve transport equation for specific humidity
DILUPBiCGStab:  Solving for thermo:specificHumidity, Initial residual = 0.0019482, Final residual = 1.46646e-09, No Iterations 1
bounding thermo:specificHumidity, min: -5.85719e-06 max: 0.0194408 average: 0.00015344
   Calculate the partial pressure of water
   Calculate the saturation pressure of water
   Calculate the relative humidity
   Calculate the water density
   Accounting for density change based on humidity
FDICPCG:  Solving for p_rgh, Initial residual = 0.026057, Final residual = 0.000259177, No Iterations 149
diagonal:  Solving for rho, Initial residual = 0, Final residual = 0, No Iterations 0
time step continuity errors : sum local = 2.75185e-07, global = 1.08023e-09, cumulative = -5.84369e-06
FDICPCG:  Solving for p_rgh, Initial residual = 0.00112754, Final residual = 9.85172e-09, No Iterations 362
diagonal:  Solving for rho, Initial residual = 0, Final residual = 0, No Iterations 0
time step continuity errors : sum local = 4.45468e-10, global = -2.64805e-11, cumulative = -5.84371e-06
ExecutionTime = 25.5 s  ClockTime = 29 s

Courant Number mean: 0.031974 max: 0.472055
deltaT = 0.0272295
Time = 10.5643

diagonal:  Solving for rho, Initial residual = 0, Final residual = 0, No Iterations 0
DILUPBiCGStab:  Solving for Ux, Initial residual = 0.016195, Final residual = 3.48395e-07, No Iterations 1
DILUPBiCGStab:  Solving for Uy, Initial residual = 0.00442782, Final residual = 9.17309e-08, No Iterations 1
DILUPBiCGStab:  Solving for h, Initial residual = 0.00167168, Final residual = 1.13461e-09, No Iterations 1
   Solve transport equation for specific humidity
DILUPBiCGStab:  Solving for thermo:specificHumidity, Initial residual = 0.0019453, Final residual = 1.4655e-09, No Iterations 1
bounding thermo:specificHumidity, min: -2.14997e-05 max: 0.0194572 average: 0.000153846
   Calculate the partial pressure of water
   Calculate the saturation pressure of water
   Calculate the relative humidity
   Calculate the water density
   Accounting for density change based on humidity
FDICPCG:  Solving for p_rgh, Initial residual = 0.0287303, Final residual = 0.000285573, No Iterations 168
diagonal:  Solving for rho, Initial residual = 0, Final residual = 0, No Iterations 0
time step continuity errors : sum local = 3.09421e-07, global = 7.17919e-09, cumulative = -5.83654e-06
FDICPCG:  Solving for p_rgh, Initial residual = 0.00120008, Final residual = 9.65695e-09, No Iterations 369
diagonal:  Solving for rho, Initial residual = 0, Final residual = 0, No Iterations 0
time step continuity errors : sum local = 4.51289e-10, global = 3.58965e-11, cumulative = -5.8365e-06
ExecutionTime = 26.46 s  ClockTime = 30 s

Courant Number mean: 0.0318635 max: 0.469353
deltaT = 0.0272295
Time = 10.5916

diagonal:  Solving for rho, Initial residual = 0, Final residual = 0, No Iterations 0
DILUPBiCGStab:  Solving for Ux, Initial residual = 0.00908273, Final residual = 9.48736e-08, No Iterations 1
DILUPBiCGStab:  Solving for Uy, Initial residual = 0.00309283, Final residual = 3.2094e-08, No Iterations 1
DILUPBiCGStab:  Solving for h, Initial residual = 0.00171546, Final residual = 1.13843e-09, No Iterations 1
   Solve transport equation for specific humidity
DILUPBiCGStab:  Solving for thermo:specificHumidity, Initial residual = 0.00194271, Final residual = 1.47624e-09, No Iterations 1
bounding thermo:specificHumidity, min: -1.09823e-07 max: 0.0194607 average: 0.000154268
   Calculate the partial pressure of water
   Calculate the saturation pressure of water
   Calculate the relative humidity
   Calculate the water density
   Accounting for density change based on humidity
FDICPCG:  Solving for p_rgh, Initial residual = 0.0254838, Final residual = 0.000234762, No Iterations 237
diagonal:  Solving for rho, Initial residual = 0, Final residual = 0, No Iterations 0
time step continuity errors : sum local = 2.48915e-07, global = 6.76412e-10, cumulative = -5.83582e-06
FDICPCG:  Solving for p_rgh, Initial residual = 0.00118936, Final residual = 9.44353e-09, No Iterations 370
diagonal:  Solving for rho, Initial residual = 0, Final residual = 0, No Iterations 0
time step continuity errors : sum local = 4.52997e-10, global = 4.77054e-11, cumulative = -5.83578e-06
ExecutionTime = 27.52 s  ClockTime = 31 s

Courant Number mean: 0.0318966 max: 0.468574
deltaT = 0.0272295
Time = 10.6188

diagonal:  Solving for rho, Initial residual = 0, Final residual = 0, No Iterations 0
DILUPBiCGStab:  Solving for Ux, Initial residual = 0.00312618, Final residual = 1.16139e-08, No Iterations 1
DILUPBiCGStab:  Solving for Uy, Initial residual = 0.0019239, Final residual = 5.42596e-09, No Iterations 1
DILUPBiCGStab:  Solving for h, Initial residual = 0.00175384, Final residual = 1.15035e-09, No Iterations 1
   Solve transport equation for specific humidity
DILUPBiCGStab:  Solving for thermo:specificHumidity, Initial residual = 0.00193876, Final residual = 1.49309e-09, No Iterations 1
bounding thermo:specificHumidity, min: -1.59054e-06 max: 0.0194881 average: 0.000154668
   Calculate the partial pressure of water
   Calculate the saturation pressure of water
   Calculate the relative humidity
   Calculate the water density
   Accounting for density change based on humidity
FDICPCG:  Solving for p_rgh, Initial residual = 0.0249043, Final residual = 0.000245271, No Iterations 171
diagonal:  Solving for rho, Initial residual = 0, Final residual = 0, No Iterations 0
time step continuity errors : sum local = 2.69743e-07, global = -3.95467e-09, cumulative = -5.83973e-06
FDICPCG:  Solving for p_rgh, Initial residual = 0.00107958, Final residual = 9.05326e-09, No Iterations 359
diagonal:  Solving for rho, Initial residual = 0, Final residual = 0, No Iterations 0
time step continuity errors : sum local = 4.4046e-10, global = 2.05714e-11, cumulative = -5.83971e-06
ExecutionTime = 28.47 s  ClockTime = 32 s

Courant Number mean: 0.0319873 max: 0.468638
deltaT = 0.0272295
Time = 10.646

diagonal:  Solving for rho, Initial residual = 0, Final residual = 0, No Iterations 0
DILUPBiCGStab:  Solving for Ux, Initial residual = 0.00688947, Final residual = 7.64227e-08, No Iterations 1
DILUPBiCGStab:  Solving for Uy, Initial residual = 0.00266705, Final residual = 1.38521e-08, No Iterations 1
DILUPBiCGStab:  Solving for h, Initial residual = 0.00165871, Final residual = 1.13416e-09, No Iterations 1
   Solve transport equation for specific humidity
DILUPBiCGStab:  Solving for thermo:specificHumidity, Initial residual = 0.00193828, Final residual = 1.50691e-09, No Iterations 1
bounding thermo:specificHumidity, min: -5.55648e-05 max: 0.0195037 average: 0.000155071
   Calculate the partial pressure of water
   Calculate the saturation pressure of water
   Calculate the relative humidity
   Calculate the water density
   Accounting for density change based on humidity
FDICPCG:  Solving for p_rgh, Initial residual = 0.02924, Final residual = 0.000286275, No Iterations 9
diagonal:  Solving for rho, Initial residual = 0, Final residual = 0, No Iterations 0
time step continuity errors : sum local = 3.2074e-07, global = -1.68529e-07, cumulative = -6.00824e-06
FDICPCG:  Solving for p_rgh, Initial residual = 0.00102883, Final residual = 9.71405e-09, No Iterations 356
diagonal:  Solving for rho, Initial residual = 0, Final residual = 0, No Iterations 0
time step continuity errors : sum local = 4.40866e-10, global = 1.81855e-14, cumulative = -6.00824e-06
ExecutionTime = 29.19 s  ClockTime = 32 s

Courant Number mean: 0.0320441 max: 0.468798
deltaT = 0.0272295
Time = 10.6732

diagonal:  Solving for rho, Initial residual = 0, Final residual = 0, No Iterations 0
DILUPBiCGStab:  Solving for Ux, Initial residual = 0.00467413, Final residual = 1.86575e-08, No Iterations 1
DILUPBiCGStab:  Solving for Uy, Initial residual = 0.00238781, Final residual = 8.3182e-09, No Iterations 1
DILUPBiCGStab:  Solving for h, Initial residual = 0.00161514, Final residual = 1.12573e-09, No Iterations 1
   Solve transport equation for specific humidity
DILUPBiCGStab:  Solving for thermo:specificHumidity, Initial residual = 0.00193546, Final residual = 1.51496e-09, No Iterations 1
bounding thermo:specificHumidity, min: -1.87039e-06 max: 0.0194939 average: 0.000155502
   Calculate the partial pressure of water
   Calculate the saturation pressure of water
   Calculate the relative humidity
   Calculate the water density
   Accounting for density change based on humidity
FDICPCG:  Solving for p_rgh, Initial residual = 0.0247914, Final residual = 0.000237012, No Iterations 244
diagonal:  Solving for rho, Initial residual = 0, Final residual = 0, No Iterations 0
time step continuity errors : sum local = 2.64864e-07, global = 8.61922e-11, cumulative = -6.00815e-06
FDICPCG:  Solving for p_rgh, Initial residual = 0.00119761, Final residual = 9.12098e-09, No Iterations 357
diagonal:  Solving for rho, Initial residual = 0, Final residual = 0, No Iterations 0
time step continuity errors : sum local = 4.40361e-10, global = -1.71185e-11, cumulative = -6.00817e-06
ExecutionTime = 30.27 s  ClockTime = 34 s

Courant Number mean: 0.032055 max: 0.468282
deltaT = 0.0272295
Time = 10.7005

diagonal:  Solving for rho, Initial residual = 0, Final residual = 0, No Iterations 0
DILUPBiCGStab:  Solving for Ux, Initial residual = 0.00169953, Final residual = 3.77283e-09, No Iterations 1
DILUPBiCGStab:  Solving for Uy, Initial residual = 0.00165104, Final residual = 4.04924e-09, No Iterations 1
DILUPBiCGStab:  Solving for h, Initial residual = 0.00162889, Final residual = 1.13509e-09, No Iterations 1
   Solve transport equation for specific humidity
DILUPBiCGStab:  Solving for thermo:specificHumidity, Initial residual = 0.00193348, Final residual = 1.5291e-09, No Iterations 1
bounding thermo:specificHumidity, min: -1.16952e-10 max: 0.019459 average: 0.000155904
   Calculate the partial pressure of water
   Calculate the saturation pressure of water
   Calculate the relative humidity
   Calculate the water density
   Accounting for density change based on humidity
FDICPCG:  Solving for p_rgh, Initial residual = 0.0245286, Final residual = 0.00024175, No Iterations 191
diagonal:  Solving for rho, Initial residual = 0, Final residual = 0, No Iterations 0
time step continuity errors : sum local = 2.68145e-07, global = -8.68744e-09, cumulative = -6.01686e-06
FDICPCG:  Solving for p_rgh, Initial residual = 0.00108932, Final residual = 9.42878e-09, No Iterations 347
diagonal:  Solving for rho, Initial residual = 0, Final residual = 0, No Iterations 0
time step continuity errors : sum local = 4.35919e-10, global = -9.51723e-12, cumulative = -6.01687e-06
ExecutionTime = 31.27 s  ClockTime = 35 s

Courant Number mean: 0.0320362 max: 0.467439
deltaT = 0.0272295
Time = 10.7277

diagonal:  Solving for rho, Initial residual = 0, Final residual = 0, No Iterations 0
DILUPBiCGStab:  Solving for Ux, Initial residual = 0.00288208, Final residual = 7.31189e-09, No Iterations 1
DILUPBiCGStab:  Solving for Uy, Initial residual = 0.00189877, Final residual = 8.75851e-09, No Iterations 1
DILUPBiCGStab:  Solving for h, Initial residual = 0.00159864, Final residual = 1.13103e-09, No Iterations 1
   Solve transport equation for specific humidity
DILUPBiCGStab:  Solving for thermo:specificHumidity, Initial residual = 0.00192962, Final residual = 1.53219e-09, No Iterations 1
bounding thermo:specificHumidity, min: -2.82254e-06 max: 0.0193996 average: 0.000156304
   Calculate the partial pressure of water
   Calculate the saturation pressure of water
   Calculate the relative humidity
   Calculate the water density
   Accounting for density change based on humidity
FDICPCG:  Solving for p_rgh, Initial residual = 0.0271251, Final residual = 0.000241143, No Iterations 4
diagonal:  Solving for rho, Initial residual = 0, Final residual = 0, No Iterations 0
time step continuity errors : sum local = 2.66658e-07, global = -3.87686e-09, cumulative = -6.02074e-06
FDICPCG:  Solving for p_rgh, Initial residual = 0.000931657, Final residual = 9.85863e-09, No Iterations 360
diagonal:  Solving for rho, Initial residual = 0, Final residual = 0, No Iterations 0
time step continuity errors : sum local = 4.43349e-10, global = 5.98309e-13, cumulative = -6.02074e-06
ExecutionTime = 31.98 s  ClockTime = 35 s

Courant Number mean: 0.0320139 max: 0.46667
deltaT = 0.0272295
Time = 10.7549

diagonal:  Solving for rho, Initial residual = 0, Final residual = 0, No Iterations 0
DILUPBiCGStab:  Solving for Ux, Initial residual = 0.003182, Final residual = 6.74238e-09, No Iterations 1
DILUPBiCGStab:  Solving for Uy, Initial residual = 0.00194964, Final residual = 8.36778e-09, No Iterations 1
DILUPBiCGStab:  Solving for h, Initial residual = 0.00157356, Final residual = 1.12511e-09, No Iterations 1
   Solve transport equation for specific humidity
DILUPBiCGStab:  Solving for thermo:specificHumidity, Initial residual = 0.00192763, Final residual = 1.52683e-09, No Iterations 1
bounding thermo:specificHumidity, min: -5.52586e-05 max: 0.0193165 average: 0.00015672
   Calculate the partial pressure of water
   Calculate the saturation pressure of water
   Calculate the relative humidity
   Calculate the water density
   Accounting for density change based on humidity
FDICPCG:  Solving for p_rgh, Initial residual = 0.0328781, Final residual = 0.000314333, No Iterations 4
diagonal:  Solving for rho, Initial residual = 0, Final residual = 0, No Iterations 0
time step continuity errors : sum local = 3.49969e-07, global = 6.41704e-08, cumulative = -5.95657e-06
FDICPCG:  Solving for p_rgh, Initial residual = 0.00100329, Final residual = 9.27071e-09, No Iterations 358
diagonal:  Solving for rho, Initial residual = 0, Final residual = 0, No Iterations 0
time step continuity errors : sum local = 4.41851e-10, global = 3.52996e-13, cumulative = -5.95657e-06
ExecutionTime = 32.7 s  ClockTime = 36 s

Courant Number mean: 0.0320009 max: 0.466156
deltaT = 0.0272295
Time = 10.7822

diagonal:  Solving for rho, Initial residual = 0, Final residual = 0, No Iterations 0
DILUPBiCGStab:  Solving for Ux, Initial residual = 0.00259665, Final residual = 3.80991e-09, No Iterations 1
DILUPBiCGStab:  Solving for Uy, Initial residual = 0.00188779, Final residual = 5.58527e-09, No Iterations 1
DILUPBiCGStab:  Solving for h, Initial residual = 0.00158143, Final residual = 1.1245e-09, No Iterations 1
   Solve transport equation for specific humidity
DILUPBiCGStab:  Solving for thermo:specificHumidity, Initial residual = 0.00192571, Final residual = 1.51623e-09, No Iterations 1
bounding thermo:specificHumidity, min: -1.87627e-06 max: 0.0193324 average: 0.00015716
   Calculate the partial pressure of water
   Calculate the saturation pressure of water
   Calculate the relative humidity
   Calculate the water density
   Accounting for density change based on humidity
FDICPCG:  Solving for p_rgh, Initial residual = 0.0248549, Final residual = 0.000248154, No Iterations 253
diagonal:  Solving for rho, Initial residual = 0, Final residual = 0, No Iterations 0
time step continuity errors : sum local = 2.78787e-07, global = 4.27776e-10, cumulative = -5.95614e-06
FDICPCG:  Solving for p_rgh, Initial residual = 0.00125926, Final residual = 9.57246e-09, No Iterations 354
diagonal:  Solving for rho, Initial residual = 0, Final residual = 0, No Iterations 0
time step continuity errors : sum local = 4.39076e-10, global = 7.75827e-12, cumulative = -5.95614e-06
ExecutionTime = 33.78 s  ClockTime = 37 s

Courant Number mean: 0.0320179 max: 0.466068
deltaT = 0.0272295
Time = 10.8094

diagonal:  Solving for rho, Initial residual = 0, Final residual = 0, No Iterations 0
DILUPBiCGStab:  Solving for Ux, Initial residual = 0.00203779, Final residual = 4.16062e-09, No Iterations 1
DILUPBiCGStab:  Solving for Uy, Initial residual = 0.00170267, Final residual = 3.4647e-09, No Iterations 1
DILUPBiCGStab:  Solving for h, Initial residual = 0.00159287, Final residual = 1.1254e-09, No Iterations 1
   Solve transport equation for specific humidity
DILUPBiCGStab:  Solving for thermo:specificHumidity, Initial residual = 0.00192731, Final residual = 1.50492e-09, No Iterations 1
bounding thermo:specificHumidity, min: -2.852e-06 max: 0.0194088 average: 0.000157561
   Calculate the partial pressure of water
   Calculate the saturation pressure of water
   Calculate the relative humidity
   Calculate the water density
   Accounting for density change based on humidity
FDICPCG:  Solving for p_rgh, Initial residual = 0.0249514, Final residual = 0.000241662, No Iterations 6
diagonal:  Solving for rho, Initial residual = 0, Final residual = 0, No Iterations 0
time step continuity errors : sum local = 2.73257e-07, global = 5.50697e-08, cumulative = -5.90107e-06
FDICPCG:  Solving for p_rgh, Initial residual = 0.000980913, Final residual = 9.56927e-09, No Iterations 371
diagonal:  Solving for rho, Initial residual = 0, Final residual = 0, No Iterations 0
time step continuity errors : sum local = 4.47103e-10, global = 1.3374e-13, cumulative = -5.90107e-06
ExecutionTime = 34.49 s  ClockTime = 38 s

Courant Number mean: 0.0320404 max: 0.466236
deltaT = 0.0272295
Time = 10.8366

diagonal:  Solving for rho, Initial residual = 0, Final residual = 0, No Iterations 0
DILUPBiCGStab:  Solving for Ux, Initial residual = 0.00245423, Final residual = 6.91286e-09, No Iterations 1
DILUPBiCGStab:  Solving for Uy, Initial residual = 0.00182382, Final residual = 4.24444e-09, No Iterations 1
DILUPBiCGStab:  Solving for h, Initial residual = 0.00157936, Final residual = 1.11531e-09, No Iterations 1
   Solve transport equation for specific humidity
DILUPBiCGStab:  Solving for thermo:specificHumidity, Initial residual = 0.00192603, Final residual = 1.48579e-09, No Iterations 1
bounding thermo:specificHumidity, min: -1.1064e-06 max: 0.0194664 average: 0.000157964
   Calculate the partial pressure of water
   Calculate the saturation pressure of water
   Calculate the relative humidity
   Calculate the water density
   Accounting for density change based on humidity
FDICPCG:  Solving for p_rgh, Initial residual = 0.0325023, Final residual = 0.000298829, No Iterations 4
diagonal:  Solving for rho, Initial residual = 0, Final residual = 0, No Iterations 0
time step continuity errors : sum local = 3.40172e-07, global = -7.46697e-08, cumulative = -5.97574e-06
FDICPCG:  Solving for p_rgh, Initial residual = 0.000980332, Final residual = 9.61786e-09, No Iterations 372
diagonal:  Solving for rho, Initial residual = 0, Final residual = 0, No Iterations 0
time step continuity errors : sum local = 4.47709e-10, global = -6.06644e-13, cumulative = -5.97574e-06
ExecutionTime = 35.2 s  ClockTime = 38 s

Courant Number mean: 0.0320448 max: 0.466409
deltaT = 0.0272295
Time = 10.8639

diagonal:  Solving for rho, Initial residual = 0, Final residual = 0, No Iterations 0
DILUPBiCGStab:  Solving for Ux, Initial residual = 0.00187755, Final residual = 3.37156e-09, No Iterations 1
DILUPBiCGStab:  Solving for Uy, Initial residual = 0.00183591, Final residual = 3.14248e-09, No Iterations 1
DILUPBiCGStab:  Solving for h, Initial residual = 0.00157689, Final residual = 1.10736e-09, No Iterations 1
   Solve transport equation for specific humidity
DILUPBiCGStab:  Solving for thermo:specificHumidity, Initial residual = 0.00192104, Final residual = 1.46498e-09, No Iterations 1
bounding thermo:specificHumidity, min: -9.89665e-07 max: 0.0195962 average: 0.000158405
   Calculate the partial pressure of water
   Calculate the saturation pressure of water
   Calculate the relative humidity
   Calculate the water density
   Accounting for density change based on humidity
FDICPCG:  Solving for p_rgh, Initial residual = 0.0244435, Final residual = 0.00024174, No Iterations 140
diagonal:  Solving for rho, Initial residual = 0, Final residual = 0, No Iterations 0
time step continuity errors : sum local = 2.75898e-07, global = -1.93116e-08, cumulative = -5.99505e-06
FDICPCG:  Solving for p_rgh, Initial residual = 0.00119346, Final residual = 9.69856e-09, No Iterations 353
diagonal:  Solving for rho, Initial residual = 0, Final residual = 0, No Iterations 0
time step continuity errors : sum local = 4.39158e-10, global = -1.80751e-13, cumulative = -5.99505e-06
ExecutionTime = 36.12 s  ClockTime = 39 s

Courant Number mean: 0.0320516 max: 0.46649
deltaT = 0.0272295
Time = 10.8911

diagonal:  Solving for rho, Initial residual = 0, Final residual = 0, No Iterations 0
DILUPBiCGStab:  Solving for Ux, Initial residual = 0.00157678, Final residual = 2.79757e-09, No Iterations 1
DILUPBiCGStab:  Solving for Uy, Initial residual = 0.00164017, Final residual = 3.61023e-09, No Iterations 1
DILUPBiCGStab:  Solving for h, Initial residual = 0.00156894, Final residual = 1.10665e-09, No Iterations 1
   Solve transport equation for specific humidity
DILUPBiCGStab:  Solving for thermo:specificHumidity, Initial residual = 0.00191921, Final residual = 1.46534e-09, No Iterations 1
bounding thermo:specificHumidity, min: -2.61653e-05 max: 0.0197072 average: 0.000158807
   Calculate the partial pressure of water
   Calculate the saturation pressure of water
   Calculate the relative humidity
   Calculate the water density
   Accounting for density change based on humidity
FDICPCG:  Solving for p_rgh, Initial residual = 0.0281602, Final residual = 0.000258679, No Iterations 5
diagonal:  Solving for rho, Initial residual = 0, Final residual = 0, No Iterations 0
time step continuity errors : sum local = 2.9613e-07, global = -1.05768e-08, cumulative = -6.00563e-06
FDICPCG:  Solving for p_rgh, Initial residual = 0.000971576, Final residual = 9.56045e-09, No Iterations 375
diagonal:  Solving for rho, Initial residual = 0, Final residual = 0, No Iterations 0
time step continuity errors : sum local = 4.54485e-10, global = -5.25065e-13, cumulative = -6.00563e-06
ExecutionTime = 36.88 s  ClockTime = 40 s

Courant Number mean: 0.0320512 max: 0.466585
deltaT = 0.0272295
Time = 10.9183

diagonal:  Solving for rho, Initial residual = 0, Final residual = 0, No Iterations 0
DILUPBiCGStab:  Solving for Ux, Initial residual = 0.00175679, Final residual = 2.84713e-09, No Iterations 1
DILUPBiCGStab:  Solving for Uy, Initial residual = 0.00171859, Final residual = 3.6417e-09, No Iterations 1
DILUPBiCGStab:  Solving for h, Initial residual = 0.00156536, Final residual = 1.10352e-09, No Iterations 1
   Solve transport equation for specific humidity
DILUPBiCGStab:  Solving for thermo:specificHumidity, Initial residual = 0.00191604, Final residual = 1.47106e-09, No Iterations 1
bounding thermo:specificHumidity, min: -5.13863e-07 max: 0.0197929 average: 0.000159227
   Calculate the partial pressure of water
   Calculate the saturation pressure of water
   Calculate the relative humidity
   Calculate the water density
   Accounting for density change based on humidity
FDICPCG:  Solving for p_rgh, Initial residual = 0.0241969, Final residual = 0.000229, No Iterations 5
diagonal:  Solving for rho, Initial residual = 0, Final residual = 0, No Iterations 0
time step continuity errors : sum local = 2.63139e-07, global = 2.6326e-08, cumulative = -5.9793e-06
FDICPCG:  Solving for p_rgh, Initial residual = 0.00100832, Final residual = 9.31081e-09, No Iterations 370
diagonal:  Solving for rho, Initial residual = 0, Final residual = 0, No Iterations 0
time step continuity errors : sum local = 4.48098e-10, global = -3.40022e-13, cumulative = -5.9793e-06
ExecutionTime = 37.62 s  ClockTime = 41 s

Courant Number mean: 0.0320574 max: 0.46676
deltaT = 0.0272295
Time = 10.9455

diagonal:  Solving for rho, Initial residual = 0, Final residual = 0, No Iterations 0
DILUPBiCGStab:  Solving for Ux, Initial residual = 0.00146249, Final residual = 2.63887e-09, No Iterations 1
DILUPBiCGStab:  Solving for Uy, Initial residual = 0.00160385, Final residual = 2.93731e-09, No Iterations 1
DILUPBiCGStab:  Solving for h, Initial residual = 0.00156713, Final residual = 1.10542e-09, No Iterations 1
   Solve transport equation for specific humidity
DILUPBiCGStab:  Solving for thermo:specificHumidity, Initial residual = 0.00191423, Final residual = 1.49401e-09, No Iterations 1
bounding thermo:specificHumidity, min: -1.13703e-05 max: 0.0198527 average: 0.000159628
   Calculate the partial pressure of water
   Calculate the saturation pressure of water
   Calculate the relative humidity
   Calculate the water density
   Accounting for density change based on humidity
FDICPCG:  Solving for p_rgh, Initial residual = 0.0257264, Final residual = 0.000252266, No Iterations 4
diagonal:  Solving for rho, Initial residual = 0, Final residual = 0, No Iterations 0
time step continuity errors : sum local = 2.91228e-07, global = 7.44627e-09, cumulative = -5.97185e-06
FDICPCG:  Solving for p_rgh, Initial residual = 0.000916192, Final residual = 9.96857e-09, No Iterations 363
diagonal:  Solving for rho, Initial residual = 0, Final residual = 0, No Iterations 0
time step continuity errors : sum local = 4.43242e-10, global = -3.93002e-13, cumulative = -5.97186e-06
ExecutionTime = 38.34 s  ClockTime = 42 s

Courant Number mean: 0.0320624 max: 0.467
deltaT = 0.0272295
Time = 10.9728

diagonal:  Solving for rho, Initial residual = 0, Final residual = 0, No Iterations 0
DILUPBiCGStab:  Solving for Ux, Initial residual = 0.00153828, Final residual = 2.85447e-09, No Iterations 1
DILUPBiCGStab:  Solving for Uy, Initial residual = 0.00168391, Final residual = 2.85171e-09, No Iterations 1
DILUPBiCGStab:  Solving for h, Initial residual = 0.0015617, Final residual = 1.11064e-09, No Iterations 1
   Solve transport equation for specific humidity
DILUPBiCGStab:  Solving for thermo:specificHumidity, Initial residual = 0.00191324, Final residual = 1.51144e-09, No Iterations 1
bounding thermo:specificHumidity, min: -2.16154e-05 max: 0.0198863 average: 0.000160043
   Calculate the partial pressure of water
   Calculate the saturation pressure of water
   Calculate the relative humidity
   Calculate the water density
   Accounting for density change based on humidity
FDICPCG:  Solving for p_rgh, Initial residual = 0.0277213, Final residual = 0.000234882, No Iterations 4
diagonal:  Solving for rho, Initial residual = 0, Final residual = 0, No Iterations 0
time step continuity errors : sum local = 2.7185e-07, global = -9.30262e-09, cumulative = -5.98116e-06
FDICPCG:  Solving for p_rgh, Initial residual = 0.00094415, Final residual = 9.83987e-09, No Iterations 356
diagonal:  Solving for rho, Initial residual = 0, Final residual = 0, No Iterations 0
time step continuity errors : sum local = 4.38247e-10, global = -3.57518e-13, cumulative = -5.98116e-06
ExecutionTime = 39.05 s  ClockTime = 42 s

Courant Number mean: 0.0320668 max: 0.467239
deltaT = 0.0272295
Time = 11

diagonal:  Solving for rho, Initial residual = 0, Final residual = 0, No Iterations 0
DILUPBiCGStab:  Solving for Ux, Initial residual = 0.00154154, Final residual = 2.48287e-09, No Iterations 1
DILUPBiCGStab:  Solving for Uy, Initial residual = 0.00169628, Final residual = 2.73235e-09, No Iterations 1
DILUPBiCGStab:  Solving for h, Initial residual = 0.00155543, Final residual = 1.11666e-09, No Iterations 1
   Solve transport equation for specific humidity
DILUPBiCGStab:  Solving for thermo:specificHumidity, Initial residual = 0.00191098, Final residual = 1.52541e-09, No Iterations 1
bounding thermo:specificHumidity, min: -2.13416e-07 max: 0.0198936 average: 0.000160462
   Calculate the partial pressure of water
   Calculate the saturation pressure of water
   Calculate the relative humidity
   Calculate the water density
   Accounting for density change based on humidity
FDICPCG:  Solving for p_rgh, Initial residual = 0.0243577, Final residual = 0.000230064, No Iterations 5
diagonal:  Solving for rho, Initial residual = 0, Final residual = 0, No Iterations 0
time step continuity errors : sum local = 2.66684e-07, global = 1.30407e-08, cumulative = -5.96812e-06
FDICPCG:  Solving for p_rgh, Initial residual = 0.000996655, Final residual = 9.58917e-09, No Iterations 368
diagonal:  Solving for rho, Initial residual = 0, Final residual = 0, No Iterations 0
time step continuity errors : sum local = 4.44988e-10, global = 4.97961e-13, cumulative = -5.96812e-06
ExecutionTime = 40.3 s  ClockTime = 44 s

Courant Number mean: 0.032076 max: 0.467487
deltaT = 0.0285714
Time = 11.0286

diagonal:  Solving for rho, Initial residual = 0, Final residual = 0, No Iterations 0
DILUPBiCGStab:  Solving for Ux, Initial residual = 0.0017096, Final residual = 3.41296e-09, No Iterations 1
DILUPBiCGStab:  Solving for Uy, Initial residual = 0.00173892, Final residual = 3.41863e-09, No Iterations 1
DILUPBiCGStab:  Solving for h, Initial residual = 0.00163187, Final residual = 1.42748e-09, No Iterations 1
   Solve transport equation for specific humidity
DILUPBiCGStab:  Solving for thermo:specificHumidity, Initial residual = 0.00200318, Final residual = 1.9504e-09, No Iterations 1
bounding thermo:specificHumidity, min: -3.56869e-05 max: 0.0198728 average: 0.000160882
   Calculate the partial pressure of water
   Calculate the saturation pressure of water
   Calculate the relative humidity
   Calculate the water density
   Accounting for density change based on humidity
FDICPCG:  Solving for p_rgh, Initial residual = 0.0289115, Final residual = 0.000239116, No Iterations 4
diagonal:  Solving for rho, Initial residual = 0, Final residual = 0, No Iterations 0
time step continuity errors : sum local = 3.04221e-07, global = -1.47714e-08, cumulative = -5.98289e-06
FDICPCG:  Solving for p_rgh, Initial residual = 0.000987185, Final residual = 9.76909e-09, No Iterations 365
diagonal:  Solving for rho, Initial residual = 0, Final residual = 0, No Iterations 0
time step continuity errors : sum local = 4.86926e-10, global = 3.3849e-13, cumulative = -5.98289e-06
ExecutionTime = 41.03 s  ClockTime = 44 s

Courant Number mean: 0.0336603 max: 0.490783
deltaT = 0.0285714
Time = 11.0571

diagonal:  Solving for rho, Initial residual = 0, Final residual = 0, No Iterations 0
DILUPBiCGStab:  Solving for Ux, Initial residual = 0.00166423, Final residual = 3.17473e-09, No Iterations 1
DILUPBiCGStab:  Solving for Uy, Initial residual = 0.00181673, Final residual = 3.65091e-09, No Iterations 1
DILUPBiCGStab:  Solving for h, Initial residual = 0.00162632, Final residual = 1.42821e-09, No Iterations 1
   Solve transport equation for specific humidity
DILUPBiCGStab:  Solving for thermo:specificHumidity, Initial residual = 0.00200391, Final residual = 1.95539e-09, No Iterations 1
bounding thermo:specificHumidity, min: -2.09985e-05 max: 0.0198243 average: 0.000161323
   Calculate the partial pressure of water
   Calculate the saturation pressure of water
   Calculate the relative humidity
   Calculate the water density
   Accounting for density change based on humidity
FDICPCG:  Solving for p_rgh, Initial residual = 0.0339106, Final residual = 0.000293794, No Iterations 4
diagonal:  Solving for rho, Initial residual = 0, Final residual = 0, No Iterations 0
time step continuity errors : sum local = 3.74451e-07, global = -3.17475e-08, cumulative = -6.01464e-06
FDICPCG:  Solving for p_rgh, Initial residual = 0.00114962, Final residual = 9.43505e-09, No Iterations 368
diagonal:  Solving for rho, Initial residual = 0, Final residual = 0, No Iterations 0
time step continuity errors : sum local = 4.89749e-10, global = -3.05062e-13, cumulative = -6.01464e-06
ExecutionTime = 41.76 s  ClockTime = 45 s

Courant Number mean: 0.0336572 max: 0.49094
deltaT = 0.0285714
Time = 11.0857

diagonal:  Solving for rho, Initial residual = 0, Final residual = 0, No Iterations 0
